                                   MODFLOW 6
                U.S. GEOLOGICAL SURVEY MODULAR HYDROLOGIC MODEL
                          GROUNDWATER FLOW MODEL (GWF)
                            VERSION 6.2.1 02/18/2021

  MODFLOW 6 compiled May  6 2021 00:38:39 with GFORTRAN compiler (ver. 10.2.0)

This software has been approved for release by the U.S. Geological 
Survey (USGS). Although the software has been subjected to rigorous 
review, the USGS reserves the right to update the software as needed 
pursuant to further analysis and review. No warranty, expressed or 
implied, is made by the USGS or the U.S. Government as to the 
functionality of the software and related material nor shall the 
fact of release constitute any such warranty. Furthermore, the 
software is released on condition that neither the USGS nor the U.S. 
Government shall be held liable for any damages resulting from its 
authorized or unauthorized use. Also refer to the USGS Water 
Resources Software User Rights Notice for complete use, copyright, 
and distribution information.


System command used to initiate simulation:
/usr/local/bin/mf6

MODFLOW was compiled using uniform precision.

Real Variables
  KIND: 8
  TINY (smallest non-zero value):    2.225074-308
  HUGE (largest value):    1.797693+308
  PRECISION: 15
  BIT SIZE: 64

Integer Variables
  KIND: 4
  HUGE (largest value): 2147483647
  BIT SIZE: 32

Long Integer Variables
  KIND: 8
  HUGE (largest value): 9223372036854775807
  BIT SIZE: 64

Logical Variables
  KIND: 4
  BIT SIZE: 32


 OPENED /Users/Theo/GRWMODELS/python/Pennink-Model/cases/Fremont/GWF/FremontGwf.dis
 FILE TYPE:DIS6                   UNIT 1005   STATUS:OLD                 
 FORMAT:FORMATTED              ACCESS:SEQUENTIAL          
 ACTION:READ                


 OPENED /Users/Theo/GRWMODELS/python/Pennink-Model/cases/Fremont/GWF/FremontGwf.chd
 FILE TYPE:CHD6                   UNIT 1006   STATUS:OLD                 
 FORMAT:FORMATTED              ACCESS:SEQUENTIAL          
 ACTION:READ                


 OPENED /Users/Theo/GRWMODELS/python/Pennink-Model/cases/Fremont/GWF/FremontGwf.ic
 FILE TYPE:IC6                    UNIT 1007   STATUS:OLD                 
 FORMAT:FORMATTED              ACCESS:SEQUENTIAL          
 ACTION:READ                


 OPENED /Users/Theo/GRWMODELS/python/Pennink-Model/cases/Fremont/GWF/FremontGwf.npf
 FILE TYPE:NPF6                   UNIT 1008   STATUS:OLD                 
 FORMAT:FORMATTED              ACCESS:SEQUENTIAL          
 ACTION:READ                


 OPENED /Users/Theo/GRWMODELS/python/Pennink-Model/cases/Fremont/GWF/FremontGwf.oc
 FILE TYPE:OC6                    UNIT 1009   STATUS:OLD                 
 FORMAT:FORMATTED              ACCESS:SEQUENTIAL          
 ACTION:READ                

 NAMEFILE OPTIONS:
    FLOWS WILL BE SAVED TO BUDGET FILE SPECIFIED IN OUTPUT CONTROL

 DIS -- STRUCTURED GRID DISCRETIZATION PACKAGE, VERSION 2 : 3/27/2014 - INPUT READ FROM UNIT 1005


 # File generated by Flopy version 3.4.3 on 12/16/2023 at 01:59:35.
 PROCESSING DISCRETIZATION OPTIONS
    MODEL LENGTH UNIT IS METERS
 END OF DISCRETIZATION OPTIONS
 PROCESSING DISCRETIZATION DIMENSIONS
    NLAY =       4
    NROW =       1
    NCOL =      43
 END OF DISCRETIZATION DIMENSIONS
 PROCESSING GRIDDATA

                     DELC =   1.000000    
 END PROCESSING GRIDDATA

 NPF -- NODE PROPERTY FLOW PACKAGE, VERSION 1, 3/30/2015 INPUT READ FROM UNIT 1008


 # File generated by Flopy version 3.4.3 on 12/16/2023 at 01:59:35.
 PROCESSING NPF OPTIONS
    CELL-BY-CELL FLOW INFORMATION WILL BE SAVED TO BINARY FILE WHENEVER ICBCFL IS NOT ZERO.
    SPECIFIC DISCHARGE WILL BE CALCULATED AT CELL CENTERS AND WRITTEN TO DATA-SPDIS IN BUDGET FILE WHEN REQUESTED.
    SATURATION WILL BE WRITTEN TO DATA-SAT IN BUDGET FILE WHEN REQUESTED.
 END OF NPF OPTIONS

 CHD   -- CHD PACKAGE, VERSION 8, 2/22/2014 INPUT READ FROM UNIT 1006
 # File generated by Flopy version 3.4.3 on 12/16/2023 at 01:59:35.

 PROCESSING CHD OPTIONS
    CHD BOUNDARIES HAVE NAMES IN LAST COLUMN.
    FLOWS WILL BE SAVED TO BUDGET FILE SPECIFIED IN OUTPUT CONTROL
    TIME-SERIES DATA WILL BE READ FROM FILE: /Users/Theo/GRWMODELS/python/Pennink-Model/cases/Fremont/GWF/Lakes.ts
 # File generated by Flopy version 3.4.3 on 12/16/2023 at 01:59:35.
    TIME-SERIES DATA WILL BE READ FROM FILE: /Users/Theo/GRWMODELS/python/Pennink-Model/cases/Fremont/GWF/WVP1.ts
 # File generated by Flopy version 3.4.3 on 12/16/2023 at 01:59:35.
    TIME-SERIES DATA WILL BE READ FROM FILE: /Users/Theo/GRWMODELS/python/Pennink-Model/cases/Fremont/GWF/WVP2.ts
 # File generated by Flopy version 3.4.3 on 12/16/2023 at 01:59:35.
 END OF CHD OPTIONS

 PROCESSING CHD DIMENSIONS
    MAXBOUND =     120
 END OF CHD DIMENSIONS

 IC -- INITIAL CONDITIONS PACKAGE, VERSION 8, 3/28/2015 INPUT READ FROM UNIT 1007
 # File generated by Flopy version 3.4.3 on 12/16/2023 at 01:59:35.
 PROCESSING GRIDDATA
 END PROCESSING GRIDDATA
 PROCESSING GRIDDATA

                ICELLTYPE = 0
 K22 not provided.  Assuming K22 = K.
 END PROCESSING GRIDDATA
    BINARY GRID INFORMATION WILL BE WRITTEN TO:
      UNIT NUMBER: 1014
      FILE NAME: /Users/Theo/GRWMODELS/python/Pennink-Model/cases/Fremont/GWF/FremontGwf.dis.grb

 OPENED /Users/Theo/GRWMODELS/python/Pennink-Model/cases/Fremont/GWF/FremontGwf.dis.grb
 FILE TYPE:DATA(BINARY)   UNIT 1014   STATUS:REPLACE             
 FORMAT:UNFORMATTED            ACCESS:STREAM              
 ACTION:READWRITE           

      THE LAST TIME STEP WILL BE PRINTED
      THE LAST TIME STEP WILL BE PRINTED
 # File generated by Flopy version 3.4.3 on 12/16/2023 at 01:59:35.

 PROCESSING OC OPTIONS

    BUDGET INFORMATION WILL BE WRITTEN TO:
      UNIT NUMBER: 1015
      FILE NAME: /Users/Theo/GRWMODELS/python/Pennink-Model/cases/Fremont/SIM/FremontGwf.cbc

 OPENED /Users/Theo/GRWMODELS/python/Pennink-Model/cases/Fremont/SIM/FremontGwf.cbc
 FILE TYPE:DATA(BINARY)   UNIT 1015   STATUS:REPLACE             
 FORMAT:UNFORMATTED            ACCESS:STREAM              
 ACTION:READWRITE           

    HEAD INFORMATION WILL BE WRITTEN TO:
      UNIT NUMBER: 1016
      FILE NAME: /Users/Theo/GRWMODELS/python/Pennink-Model/cases/Fremont/SIM/FremontGwf.hds

 OPENED /Users/Theo/GRWMODELS/python/Pennink-Model/cases/Fremont/SIM/FremontGwf.hds
 FILE TYPE:DATA(BINARY)   UNIT 1016   STATUS:REPLACE             
 FORMAT:UNFORMATTED            ACCESS:STREAM              
 ACTION:READWRITE           

 END OF OC OPTIONS

start timestep kper="1" kstp="1" mode="normal"


 BEGIN READING OUTPUT CONTROL FOR STRESS PERIOD 1
      ALL TIME STEPS WILL BE SAVED
      ALL TIME STEPS WILL BE SAVED

 END READING OUTPUT CONTROL FOR STRESS PERIOD 1
 UBDSV1 SAVING     FLOW-JA-FACE ON UNIT   1015 AT TIME STEP      1, STRESS PERIOD      1
 UBDSV06 SAVING       DATA-SPDIS IN MODEL FREMONTGWF       PACKAGE NPF             CONNECTED TO MODEL FREMONTGWF       PACKAGE NPF              ON UNIT   1015 AT TIME STEP      1, STRESS PERIOD      1
 UBDSV06 SAVING         DATA-SAT IN MODEL FREMONTGWF       PACKAGE NPF             CONNECTED TO MODEL FREMONTGWF       PACKAGE NPF              ON UNIT   1015 AT TIME STEP      1, STRESS PERIOD      1
 UBDSV06 SAVING              CHD IN MODEL FREMONTGWF       PACKAGE FREMONTGWF      CONNECTED TO MODEL FREMONTGWF       PACKAGE CHD_0            ON UNIT   1015 AT TIME STEP      1, STRESS PERIOD      1

 HEAD WILL BE SAVED ON UNIT 1016 AT END OF TIME STEP    1, STRESS PERIOD    1

end timestep


start timestep kper="1" kstp="2" mode="normal"

 UBDSV1 SAVING     FLOW-JA-FACE ON UNIT   1015 AT TIME STEP      2, STRESS PERIOD      1
 UBDSV06 SAVING       DATA-SPDIS IN MODEL FREMONTGWF       PACKAGE NPF             CONNECTED TO MODEL FREMONTGWF       PACKAGE NPF              ON UNIT   1015 AT TIME STEP      2, STRESS PERIOD      1
 UBDSV06 SAVING         DATA-SAT IN MODEL FREMONTGWF       PACKAGE NPF             CONNECTED TO MODEL FREMONTGWF       PACKAGE NPF              ON UNIT   1015 AT TIME STEP      2, STRESS PERIOD      1
 UBDSV06 SAVING              CHD IN MODEL FREMONTGWF       PACKAGE FREMONTGWF      CONNECTED TO MODEL FREMONTGWF       PACKAGE CHD_0            ON UNIT   1015 AT TIME STEP      2, STRESS PERIOD      1

 HEAD WILL BE SAVED ON UNIT 1016 AT END OF TIME STEP    2, STRESS PERIOD    1

end timestep


start timestep kper="1" kstp="3" mode="normal"

 UBDSV1 SAVING     FLOW-JA-FACE ON UNIT   1015 AT TIME STEP      3, STRESS PERIOD      1
 UBDSV06 SAVING       DATA-SPDIS IN MODEL FREMONTGWF       PACKAGE NPF             CONNECTED TO MODEL FREMONTGWF       PACKAGE NPF              ON UNIT   1015 AT TIME STEP      3, STRESS PERIOD      1
 UBDSV06 SAVING         DATA-SAT IN MODEL FREMONTGWF       PACKAGE NPF             CONNECTED TO MODEL FREMONTGWF       PACKAGE NPF              ON UNIT   1015 AT TIME STEP      3, STRESS PERIOD      1
 UBDSV06 SAVING              CHD IN MODEL FREMONTGWF       PACKAGE FREMONTGWF      CONNECTED TO MODEL FREMONTGWF       PACKAGE CHD_0            ON UNIT   1015 AT TIME STEP      3, STRESS PERIOD      1

 HEAD WILL BE SAVED ON UNIT 1016 AT END OF TIME STEP    3, STRESS PERIOD    1

end timestep


start timestep kper="1" kstp="4" mode="normal"

 UBDSV1 SAVING     FLOW-JA-FACE ON UNIT   1015 AT TIME STEP      4, STRESS PERIOD      1
 UBDSV06 SAVING       DATA-SPDIS IN MODEL FREMONTGWF       PACKAGE NPF             CONNECTED TO MODEL FREMONTGWF       PACKAGE NPF              ON UNIT   1015 AT TIME STEP      4, STRESS PERIOD      1
 UBDSV06 SAVING         DATA-SAT IN MODEL FREMONTGWF       PACKAGE NPF             CONNECTED TO MODEL FREMONTGWF       PACKAGE NPF              ON UNIT   1015 AT TIME STEP      4, STRESS PERIOD      1
 UBDSV06 SAVING              CHD IN MODEL FREMONTGWF       PACKAGE FREMONTGWF      CONNECTED TO MODEL FREMONTGWF       PACKAGE CHD_0            ON UNIT   1015 AT TIME STEP      4, STRESS PERIOD      1

 HEAD WILL BE SAVED ON UNIT 1016 AT END OF TIME STEP    4, STRESS PERIOD    1


  VOLUME BUDGET FOR ENTIRE MODEL AT END OF TIME STEP    4, STRESS PERIOD   1
  ---------------------------------------------------------------------------------------------------

     CUMULATIVE VOLUME      L**3       RATES FOR THIS TIME STEP      L**3/T          PACKAGE NAME    
     ------------------                 ------------------------                     ----------------

           IN:                                      IN:
           ---                                      ---
                 CHD =         110.1755                   CHD =           3.7427     CHD_0           

            TOTAL IN =         110.1755              TOTAL IN =           3.7427

          OUT:                                     OUT:
          ----                                     ----
                 CHD =         110.1755                   CHD =           3.7427     CHD_0           

           TOTAL OUT =         110.1755             TOTAL OUT =           3.7427

            IN - OUT =       1.0027E-07              IN - OUT =       7.7442E-09

 PERCENT DISCREPANCY =          -0.00     PERCENT DISCREPANCY =          -0.00




         TIME SUMMARY AT END OF TIME STEP    4 IN STRESS PERIOD    1
                    SECONDS     MINUTES      HOURS       DAYS        YEARS
                    -----------------------------------------------------------
   TIME STEP LENGTH 9.07317E+05  15122.      252.03      10.501     2.87511E-02
 STRESS PERIOD TIME 2.67840E+06  44640.      744.00      31.000     8.48734E-02
         TOTAL TIME 2.67840E+06  44640.      744.00      31.000     8.48734E-02


end timestep


start timestep kper="2" kstp="1" mode="normal"


 END OF FILE DETECTED IN OUTPUT CONTROL.
 CURRENT OUTPUT CONTROL SETTINGS WILL BE 
 REPEATED UNTIL THE END OF THE SIMULATION.

 OUTPUT CONTROL FOR STRESS PERIOD 2 IS REPEATED USING SETTINGS FROM A PREVIOUS STRESS PERIOD.

 REUSING CHDS FROM LAST STRESS PERIOD
 UBDSV1 SAVING     FLOW-JA-FACE ON UNIT   1015 AT TIME STEP      1, STRESS PERIOD      2
 UBDSV06 SAVING       DATA-SPDIS IN MODEL FREMONTGWF       PACKAGE NPF             CONNECTED TO MODEL FREMONTGWF       PACKAGE NPF              ON UNIT   1015 AT TIME STEP      1, STRESS PERIOD      2
 UBDSV06 SAVING         DATA-SAT IN MODEL FREMONTGWF       PACKAGE NPF             CONNECTED TO MODEL FREMONTGWF       PACKAGE NPF              ON UNIT   1015 AT TIME STEP      1, STRESS PERIOD      2
 UBDSV06 SAVING              CHD IN MODEL FREMONTGWF       PACKAGE FREMONTGWF      CONNECTED TO MODEL FREMONTGWF       PACKAGE CHD_0            ON UNIT   1015 AT TIME STEP      1, STRESS PERIOD      2

 HEAD WILL BE SAVED ON UNIT 1016 AT END OF TIME STEP    1, STRESS PERIOD    2

end timestep


start timestep kper="2" kstp="2" mode="normal"

 UBDSV1 SAVING     FLOW-JA-FACE ON UNIT   1015 AT TIME STEP      2, STRESS PERIOD      2
 UBDSV06 SAVING       DATA-SPDIS IN MODEL FREMONTGWF       PACKAGE NPF             CONNECTED TO MODEL FREMONTGWF       PACKAGE NPF              ON UNIT   1015 AT TIME STEP      2, STRESS PERIOD      2
 UBDSV06 SAVING         DATA-SAT IN MODEL FREMONTGWF       PACKAGE NPF             CONNECTED TO MODEL FREMONTGWF       PACKAGE NPF              ON UNIT   1015 AT TIME STEP      2, STRESS PERIOD      2
 UBDSV06 SAVING              CHD IN MODEL FREMONTGWF       PACKAGE FREMONTGWF      CONNECTED TO MODEL FREMONTGWF       PACKAGE CHD_0            ON UNIT   1015 AT TIME STEP      2, STRESS PERIOD      2

 HEAD WILL BE SAVED ON UNIT 1016 AT END OF TIME STEP    2, STRESS PERIOD    2

end timestep


start timestep kper="2" kstp="3" mode="normal"

 UBDSV1 SAVING     FLOW-JA-FACE ON UNIT   1015 AT TIME STEP      3, STRESS PERIOD      2
 UBDSV06 SAVING       DATA-SPDIS IN MODEL FREMONTGWF       PACKAGE NPF             CONNECTED TO MODEL FREMONTGWF       PACKAGE NPF              ON UNIT   1015 AT TIME STEP      3, STRESS PERIOD      2
 UBDSV06 SAVING         DATA-SAT IN MODEL FREMONTGWF       PACKAGE NPF             CONNECTED TO MODEL FREMONTGWF       PACKAGE NPF              ON UNIT   1015 AT TIME STEP      3, STRESS PERIOD      2
 UBDSV06 SAVING              CHD IN MODEL FREMONTGWF       PACKAGE FREMONTGWF      CONNECTED TO MODEL FREMONTGWF       PACKAGE CHD_0            ON UNIT   1015 AT TIME STEP      3, STRESS PERIOD      2

 HEAD WILL BE SAVED ON UNIT 1016 AT END OF TIME STEP    3, STRESS PERIOD    2

end timestep


start timestep kper="2" kstp="4" mode="normal"

 UBDSV1 SAVING     FLOW-JA-FACE ON UNIT   1015 AT TIME STEP      4, STRESS PERIOD      2
 UBDSV06 SAVING       DATA-SPDIS IN MODEL FREMONTGWF       PACKAGE NPF             CONNECTED TO MODEL FREMONTGWF       PACKAGE NPF              ON UNIT   1015 AT TIME STEP      4, STRESS PERIOD      2
 UBDSV06 SAVING         DATA-SAT IN MODEL FREMONTGWF       PACKAGE NPF             CONNECTED TO MODEL FREMONTGWF       PACKAGE NPF              ON UNIT   1015 AT TIME STEP      4, STRESS PERIOD      2
 UBDSV06 SAVING              CHD IN MODEL FREMONTGWF       PACKAGE FREMONTGWF      CONNECTED TO MODEL FREMONTGWF       PACKAGE CHD_0            ON UNIT   1015 AT TIME STEP      4, STRESS PERIOD      2

 HEAD WILL BE SAVED ON UNIT 1016 AT END OF TIME STEP    4, STRESS PERIOD    2


  VOLUME BUDGET FOR ENTIRE MODEL AT END OF TIME STEP    4, STRESS PERIOD   2
  ---------------------------------------------------------------------------------------------------

     CUMULATIVE VOLUME      L**3       RATES FOR THIS TIME STEP      L**3/T          PACKAGE NAME    
     ------------------                 ------------------------                     ----------------

           IN:                                      IN:
           ---                                      ---
                 CHD =         236.2069                   CHD =           3.9296     CHD_0           

            TOTAL IN =         236.2069              TOTAL IN =           3.9296

          OUT:                                     OUT:
          ----                                     ----
                 CHD =         236.2069                   CHD =           3.9296     CHD_0           

           TOTAL OUT =         236.2069             TOTAL OUT =           3.9296

            IN - OUT =       7.4104E-08              IN - OUT =       4.8929E-09

 PERCENT DISCREPANCY =          -0.00     PERCENT DISCREPANCY =           0.00




         TIME SUMMARY AT END OF TIME STEP    4 IN STRESS PERIOD    2
                    SECONDS     MINUTES      HOURS       DAYS        YEARS
                    -----------------------------------------------------------
   TIME STEP LENGTH 9.07317E+05  15122.      252.03      10.501     2.87511E-02
 STRESS PERIOD TIME 2.67840E+06  44640.      744.00      31.000     8.48734E-02
         TOTAL TIME 5.35680E+06  89280.      1488.0      62.000     0.16975    


end timestep


start timestep kper="3" kstp="1" mode="normal"


 OUTPUT CONTROL FOR STRESS PERIOD 3 IS REPEATED USING SETTINGS FROM A PREVIOUS STRESS PERIOD.

 REUSING CHDS FROM LAST STRESS PERIOD
 UBDSV1 SAVING     FLOW-JA-FACE ON UNIT   1015 AT TIME STEP      1, STRESS PERIOD      3
 UBDSV06 SAVING       DATA-SPDIS IN MODEL FREMONTGWF       PACKAGE NPF             CONNECTED TO MODEL FREMONTGWF       PACKAGE NPF              ON UNIT   1015 AT TIME STEP      1, STRESS PERIOD      3
 UBDSV06 SAVING         DATA-SAT IN MODEL FREMONTGWF       PACKAGE NPF             CONNECTED TO MODEL FREMONTGWF       PACKAGE NPF              ON UNIT   1015 AT TIME STEP      1, STRESS PERIOD      3
 UBDSV06 SAVING              CHD IN MODEL FREMONTGWF       PACKAGE FREMONTGWF      CONNECTED TO MODEL FREMONTGWF       PACKAGE CHD_0            ON UNIT   1015 AT TIME STEP      1, STRESS PERIOD      3

 HEAD WILL BE SAVED ON UNIT 1016 AT END OF TIME STEP    1, STRESS PERIOD    3

end timestep


start timestep kper="3" kstp="2" mode="normal"

 UBDSV1 SAVING     FLOW-JA-FACE ON UNIT   1015 AT TIME STEP      2, STRESS PERIOD      3
 UBDSV06 SAVING       DATA-SPDIS IN MODEL FREMONTGWF       PACKAGE NPF             CONNECTED TO MODEL FREMONTGWF       PACKAGE NPF              ON UNIT   1015 AT TIME STEP      2, STRESS PERIOD      3
 UBDSV06 SAVING         DATA-SAT IN MODEL FREMONTGWF       PACKAGE NPF             CONNECTED TO MODEL FREMONTGWF       PACKAGE NPF              ON UNIT   1015 AT TIME STEP      2, STRESS PERIOD      3
 UBDSV06 SAVING              CHD IN MODEL FREMONTGWF       PACKAGE FREMONTGWF      CONNECTED TO MODEL FREMONTGWF       PACKAGE CHD_0            ON UNIT   1015 AT TIME STEP      2, STRESS PERIOD      3

 HEAD WILL BE SAVED ON UNIT 1016 AT END OF TIME STEP    2, STRESS PERIOD    3

end timestep


start timestep kper="3" kstp="3" mode="normal"

 UBDSV1 SAVING     FLOW-JA-FACE ON UNIT   1015 AT TIME STEP      3, STRESS PERIOD      3
 UBDSV06 SAVING       DATA-SPDIS IN MODEL FREMONTGWF       PACKAGE NPF             CONNECTED TO MODEL FREMONTGWF       PACKAGE NPF              ON UNIT   1015 AT TIME STEP      3, STRESS PERIOD      3
 UBDSV06 SAVING         DATA-SAT IN MODEL FREMONTGWF       PACKAGE NPF             CONNECTED TO MODEL FREMONTGWF       PACKAGE NPF              ON UNIT   1015 AT TIME STEP      3, STRESS PERIOD      3
 UBDSV06 SAVING              CHD IN MODEL FREMONTGWF       PACKAGE FREMONTGWF      CONNECTED TO MODEL FREMONTGWF       PACKAGE CHD_0            ON UNIT   1015 AT TIME STEP      3, STRESS PERIOD      3

 HEAD WILL BE SAVED ON UNIT 1016 AT END OF TIME STEP    3, STRESS PERIOD    3

end timestep


start timestep kper="3" kstp="4" mode="normal"

 UBDSV1 SAVING     FLOW-JA-FACE ON UNIT   1015 AT TIME STEP      4, STRESS PERIOD      3
 UBDSV06 SAVING       DATA-SPDIS IN MODEL FREMONTGWF       PACKAGE NPF             CONNECTED TO MODEL FREMONTGWF       PACKAGE NPF              ON UNIT   1015 AT TIME STEP      4, STRESS PERIOD      3
 UBDSV06 SAVING         DATA-SAT IN MODEL FREMONTGWF       PACKAGE NPF             CONNECTED TO MODEL FREMONTGWF       PACKAGE NPF              ON UNIT   1015 AT TIME STEP      4, STRESS PERIOD      3
 UBDSV06 SAVING              CHD IN MODEL FREMONTGWF       PACKAGE FREMONTGWF      CONNECTED TO MODEL FREMONTGWF       PACKAGE CHD_0            ON UNIT   1015 AT TIME STEP      4, STRESS PERIOD      3

 HEAD WILL BE SAVED ON UNIT 1016 AT END OF TIME STEP    4, STRESS PERIOD    3


  VOLUME BUDGET FOR ENTIRE MODEL AT END OF TIME STEP    4, STRESS PERIOD   3
  ---------------------------------------------------------------------------------------------------

     CUMULATIVE VOLUME      L**3       RATES FOR THIS TIME STEP      L**3/T          PACKAGE NAME    
     ------------------                 ------------------------                     ----------------

           IN:                                      IN:
           ---                                      ---
                 CHD =         345.0901                   CHD =           3.8142     CHD_0           

            TOTAL IN =         345.0901              TOTAL IN =           3.8142

          OUT:                                     OUT:
          ----                                     ----
                 CHD =         345.0901                   CHD =           3.8142     CHD_0           

           TOTAL OUT =         345.0901             TOTAL OUT =           3.8142

            IN - OUT =       1.5201E-07              IN - OUT =       2.6990E-09

 PERCENT DISCREPANCY =          -0.00     PERCENT DISCREPANCY =           0.00




         TIME SUMMARY AT END OF TIME STEP    4 IN STRESS PERIOD    3
                    SECONDS     MINUTES      HOURS       DAYS        YEARS
                    -----------------------------------------------------------
   TIME STEP LENGTH 8.19512E+05  13659.      227.64      9.4851     2.59688E-02
 STRESS PERIOD TIME 2.41920E+06  40320.      672.00      28.000     7.66598E-02
         TOTAL TIME 7.77600E+06 1.29600E+05  2160.0      90.000     0.24641    


end timestep


start timestep kper="4" kstp="1" mode="normal"


 OUTPUT CONTROL FOR STRESS PERIOD 4 IS REPEATED USING SETTINGS FROM A PREVIOUS STRESS PERIOD.

 REUSING CHDS FROM LAST STRESS PERIOD
 UBDSV1 SAVING     FLOW-JA-FACE ON UNIT   1015 AT TIME STEP      1, STRESS PERIOD      4
 UBDSV06 SAVING       DATA-SPDIS IN MODEL FREMONTGWF       PACKAGE NPF             CONNECTED TO MODEL FREMONTGWF       PACKAGE NPF              ON UNIT   1015 AT TIME STEP      1, STRESS PERIOD      4
 UBDSV06 SAVING         DATA-SAT IN MODEL FREMONTGWF       PACKAGE NPF             CONNECTED TO MODEL FREMONTGWF       PACKAGE NPF              ON UNIT   1015 AT TIME STEP      1, STRESS PERIOD      4
 UBDSV06 SAVING              CHD IN MODEL FREMONTGWF       PACKAGE FREMONTGWF      CONNECTED TO MODEL FREMONTGWF       PACKAGE CHD_0            ON UNIT   1015 AT TIME STEP      1, STRESS PERIOD      4

 HEAD WILL BE SAVED ON UNIT 1016 AT END OF TIME STEP    1, STRESS PERIOD    4

end timestep


start timestep kper="4" kstp="2" mode="normal"

 UBDSV1 SAVING     FLOW-JA-FACE ON UNIT   1015 AT TIME STEP      2, STRESS PERIOD      4
 UBDSV06 SAVING       DATA-SPDIS IN MODEL FREMONTGWF       PACKAGE NPF             CONNECTED TO MODEL FREMONTGWF       PACKAGE NPF              ON UNIT   1015 AT TIME STEP      2, STRESS PERIOD      4
 UBDSV06 SAVING         DATA-SAT IN MODEL FREMONTGWF       PACKAGE NPF             CONNECTED TO MODEL FREMONTGWF       PACKAGE NPF              ON UNIT   1015 AT TIME STEP      2, STRESS PERIOD      4
 UBDSV06 SAVING              CHD IN MODEL FREMONTGWF       PACKAGE FREMONTGWF      CONNECTED TO MODEL FREMONTGWF       PACKAGE CHD_0            ON UNIT   1015 AT TIME STEP      2, STRESS PERIOD      4

 HEAD WILL BE SAVED ON UNIT 1016 AT END OF TIME STEP    2, STRESS PERIOD    4

end timestep


start timestep kper="4" kstp="3" mode="normal"

 UBDSV1 SAVING     FLOW-JA-FACE ON UNIT   1015 AT TIME STEP      3, STRESS PERIOD      4
 UBDSV06 SAVING       DATA-SPDIS IN MODEL FREMONTGWF       PACKAGE NPF             CONNECTED TO MODEL FREMONTGWF       PACKAGE NPF              ON UNIT   1015 AT TIME STEP      3, STRESS PERIOD      4
 UBDSV06 SAVING         DATA-SAT IN MODEL FREMONTGWF       PACKAGE NPF             CONNECTED TO MODEL FREMONTGWF       PACKAGE NPF              ON UNIT   1015 AT TIME STEP      3, STRESS PERIOD      4
 UBDSV06 SAVING              CHD IN MODEL FREMONTGWF       PACKAGE FREMONTGWF      CONNECTED TO MODEL FREMONTGWF       PACKAGE CHD_0            ON UNIT   1015 AT TIME STEP      3, STRESS PERIOD      4

 HEAD WILL BE SAVED ON UNIT 1016 AT END OF TIME STEP    3, STRESS PERIOD    4

end timestep


start timestep kper="4" kstp="4" mode="normal"

 UBDSV1 SAVING     FLOW-JA-FACE ON UNIT   1015 AT TIME STEP      4, STRESS PERIOD      4
 UBDSV06 SAVING       DATA-SPDIS IN MODEL FREMONTGWF       PACKAGE NPF             CONNECTED TO MODEL FREMONTGWF       PACKAGE NPF              ON UNIT   1015 AT TIME STEP      4, STRESS PERIOD      4
 UBDSV06 SAVING         DATA-SAT IN MODEL FREMONTGWF       PACKAGE NPF             CONNECTED TO MODEL FREMONTGWF       PACKAGE NPF              ON UNIT   1015 AT TIME STEP      4, STRESS PERIOD      4
 UBDSV06 SAVING              CHD IN MODEL FREMONTGWF       PACKAGE FREMONTGWF      CONNECTED TO MODEL FREMONTGWF       PACKAGE CHD_0            ON UNIT   1015 AT TIME STEP      4, STRESS PERIOD      4

 HEAD WILL BE SAVED ON UNIT 1016 AT END OF TIME STEP    4, STRESS PERIOD    4


  VOLUME BUDGET FOR ENTIRE MODEL AT END OF TIME STEP    4, STRESS PERIOD   4
  ---------------------------------------------------------------------------------------------------

     CUMULATIVE VOLUME      L**3       RATES FOR THIS TIME STEP      L**3/T          PACKAGE NAME    
     ------------------                 ------------------------                     ----------------

           IN:                                      IN:
           ---                                      ---
                 CHD =         459.9352                   CHD =           3.6340     CHD_0           

            TOTAL IN =         459.9352              TOTAL IN =           3.6340

          OUT:                                     OUT:
          ----                                     ----
                 CHD =         459.9352                   CHD =           3.6340     CHD_0           

           TOTAL OUT =         459.9352             TOTAL OUT =           3.6340

            IN - OUT =       3.6602E-08              IN - OUT =       6.4215E-09

 PERCENT DISCREPANCY =          -0.00     PERCENT DISCREPANCY =           0.00




         TIME SUMMARY AT END OF TIME STEP    4 IN STRESS PERIOD    4
                    SECONDS     MINUTES      HOURS       DAYS        YEARS
                    -----------------------------------------------------------
   TIME STEP LENGTH 9.07317E+05  15122.      252.03      10.501     2.87511E-02
 STRESS PERIOD TIME 2.67840E+06  44640.      744.00      31.000     8.48734E-02
         TOTAL TIME 1.04544E+07 1.74240E+05  2904.0      121.00     0.33128    


end timestep


start timestep kper="5" kstp="1" mode="normal"


 OUTPUT CONTROL FOR STRESS PERIOD 5 IS REPEATED USING SETTINGS FROM A PREVIOUS STRESS PERIOD.

 REUSING CHDS FROM LAST STRESS PERIOD
 UBDSV1 SAVING     FLOW-JA-FACE ON UNIT   1015 AT TIME STEP      1, STRESS PERIOD      5
 UBDSV06 SAVING       DATA-SPDIS IN MODEL FREMONTGWF       PACKAGE NPF             CONNECTED TO MODEL FREMONTGWF       PACKAGE NPF              ON UNIT   1015 AT TIME STEP      1, STRESS PERIOD      5
 UBDSV06 SAVING         DATA-SAT IN MODEL FREMONTGWF       PACKAGE NPF             CONNECTED TO MODEL FREMONTGWF       PACKAGE NPF              ON UNIT   1015 AT TIME STEP      1, STRESS PERIOD      5
 UBDSV06 SAVING              CHD IN MODEL FREMONTGWF       PACKAGE FREMONTGWF      CONNECTED TO MODEL FREMONTGWF       PACKAGE CHD_0            ON UNIT   1015 AT TIME STEP      1, STRESS PERIOD      5

 HEAD WILL BE SAVED ON UNIT 1016 AT END OF TIME STEP    1, STRESS PERIOD    5

end timestep


start timestep kper="5" kstp="2" mode="normal"

 UBDSV1 SAVING     FLOW-JA-FACE ON UNIT   1015 AT TIME STEP      2, STRESS PERIOD      5
 UBDSV06 SAVING       DATA-SPDIS IN MODEL FREMONTGWF       PACKAGE NPF             CONNECTED TO MODEL FREMONTGWF       PACKAGE NPF              ON UNIT   1015 AT TIME STEP      2, STRESS PERIOD      5
 UBDSV06 SAVING         DATA-SAT IN MODEL FREMONTGWF       PACKAGE NPF             CONNECTED TO MODEL FREMONTGWF       PACKAGE NPF              ON UNIT   1015 AT TIME STEP      2, STRESS PERIOD      5
 UBDSV06 SAVING              CHD IN MODEL FREMONTGWF       PACKAGE FREMONTGWF      CONNECTED TO MODEL FREMONTGWF       PACKAGE CHD_0            ON UNIT   1015 AT TIME STEP      2, STRESS PERIOD      5

 HEAD WILL BE SAVED ON UNIT 1016 AT END OF TIME STEP    2, STRESS PERIOD    5

end timestep


start timestep kper="5" kstp="3" mode="normal"

 UBDSV1 SAVING     FLOW-JA-FACE ON UNIT   1015 AT TIME STEP      3, STRESS PERIOD      5
 UBDSV06 SAVING       DATA-SPDIS IN MODEL FREMONTGWF       PACKAGE NPF             CONNECTED TO MODEL FREMONTGWF       PACKAGE NPF              ON UNIT   1015 AT TIME STEP      3, STRESS PERIOD      5
 UBDSV06 SAVING         DATA-SAT IN MODEL FREMONTGWF       PACKAGE NPF             CONNECTED TO MODEL FREMONTGWF       PACKAGE NPF              ON UNIT   1015 AT TIME STEP      3, STRESS PERIOD      5
 UBDSV06 SAVING              CHD IN MODEL FREMONTGWF       PACKAGE FREMONTGWF      CONNECTED TO MODEL FREMONTGWF       PACKAGE CHD_0            ON UNIT   1015 AT TIME STEP      3, STRESS PERIOD      5

 HEAD WILL BE SAVED ON UNIT 1016 AT END OF TIME STEP    3, STRESS PERIOD    5

end timestep


start timestep kper="5" kstp="4" mode="normal"

 UBDSV1 SAVING     FLOW-JA-FACE ON UNIT   1015 AT TIME STEP      4, STRESS PERIOD      5
 UBDSV06 SAVING       DATA-SPDIS IN MODEL FREMONTGWF       PACKAGE NPF             CONNECTED TO MODEL FREMONTGWF       PACKAGE NPF              ON UNIT   1015 AT TIME STEP      4, STRESS PERIOD      5
 UBDSV06 SAVING         DATA-SAT IN MODEL FREMONTGWF       PACKAGE NPF             CONNECTED TO MODEL FREMONTGWF       PACKAGE NPF              ON UNIT   1015 AT TIME STEP      4, STRESS PERIOD      5
 UBDSV06 SAVING              CHD IN MODEL FREMONTGWF       PACKAGE FREMONTGWF      CONNECTED TO MODEL FREMONTGWF       PACKAGE CHD_0            ON UNIT   1015 AT TIME STEP      4, STRESS PERIOD      5

 HEAD WILL BE SAVED ON UNIT 1016 AT END OF TIME STEP    4, STRESS PERIOD    5


  VOLUME BUDGET FOR ENTIRE MODEL AT END OF TIME STEP    4, STRESS PERIOD   5
  ---------------------------------------------------------------------------------------------------

     CUMULATIVE VOLUME      L**3       RATES FOR THIS TIME STEP      L**3/T          PACKAGE NAME    
     ------------------                 ------------------------                     ----------------

           IN:                                      IN:
           ---                                      ---
                 CHD =         565.0030                   CHD =           3.4595     CHD_0           

            TOTAL IN =         565.0030              TOTAL IN =           3.4595

          OUT:                                     OUT:
          ----                                     ----
                 CHD =         565.0030                   CHD =           3.4595     CHD_0           

           TOTAL OUT =         565.0030             TOTAL OUT =           3.4595

            IN - OUT =       8.3336E-08              IN - OUT =       3.6419E-09

 PERCENT DISCREPANCY =           0.00     PERCENT DISCREPANCY =           0.00




         TIME SUMMARY AT END OF TIME STEP    4 IN STRESS PERIOD    5
                    SECONDS     MINUTES      HOURS       DAYS        YEARS
                    -----------------------------------------------------------
   TIME STEP LENGTH 8.78049E+05  14634.      243.90      10.163     2.78237E-02
 STRESS PERIOD TIME 2.59200E+06  43200.      720.00      30.000     8.21355E-02
         TOTAL TIME 1.30464E+07 2.17440E+05  3624.0      151.00     0.41342    


end timestep


start timestep kper="6" kstp="1" mode="normal"


 OUTPUT CONTROL FOR STRESS PERIOD 6 IS REPEATED USING SETTINGS FROM A PREVIOUS STRESS PERIOD.

 REUSING CHDS FROM LAST STRESS PERIOD
 UBDSV1 SAVING     FLOW-JA-FACE ON UNIT   1015 AT TIME STEP      1, STRESS PERIOD      6
 UBDSV06 SAVING       DATA-SPDIS IN MODEL FREMONTGWF       PACKAGE NPF             CONNECTED TO MODEL FREMONTGWF       PACKAGE NPF              ON UNIT   1015 AT TIME STEP      1, STRESS PERIOD      6
 UBDSV06 SAVING         DATA-SAT IN MODEL FREMONTGWF       PACKAGE NPF             CONNECTED TO MODEL FREMONTGWF       PACKAGE NPF              ON UNIT   1015 AT TIME STEP      1, STRESS PERIOD      6
 UBDSV06 SAVING              CHD IN MODEL FREMONTGWF       PACKAGE FREMONTGWF      CONNECTED TO MODEL FREMONTGWF       PACKAGE CHD_0            ON UNIT   1015 AT TIME STEP      1, STRESS PERIOD      6

 HEAD WILL BE SAVED ON UNIT 1016 AT END OF TIME STEP    1, STRESS PERIOD    6

end timestep


start timestep kper="6" kstp="2" mode="normal"

 UBDSV1 SAVING     FLOW-JA-FACE ON UNIT   1015 AT TIME STEP      2, STRESS PERIOD      6
 UBDSV06 SAVING       DATA-SPDIS IN MODEL FREMONTGWF       PACKAGE NPF             CONNECTED TO MODEL FREMONTGWF       PACKAGE NPF              ON UNIT   1015 AT TIME STEP      2, STRESS PERIOD      6
 UBDSV06 SAVING         DATA-SAT IN MODEL FREMONTGWF       PACKAGE NPF             CONNECTED TO MODEL FREMONTGWF       PACKAGE NPF              ON UNIT   1015 AT TIME STEP      2, STRESS PERIOD      6
 UBDSV06 SAVING              CHD IN MODEL FREMONTGWF       PACKAGE FREMONTGWF      CONNECTED TO MODEL FREMONTGWF       PACKAGE CHD_0            ON UNIT   1015 AT TIME STEP      2, STRESS PERIOD      6

 HEAD WILL BE SAVED ON UNIT 1016 AT END OF TIME STEP    2, STRESS PERIOD    6

end timestep


start timestep kper="6" kstp="3" mode="normal"

 UBDSV1 SAVING     FLOW-JA-FACE ON UNIT   1015 AT TIME STEP      3, STRESS PERIOD      6
 UBDSV06 SAVING       DATA-SPDIS IN MODEL FREMONTGWF       PACKAGE NPF             CONNECTED TO MODEL FREMONTGWF       PACKAGE NPF              ON UNIT   1015 AT TIME STEP      3, STRESS PERIOD      6
 UBDSV06 SAVING         DATA-SAT IN MODEL FREMONTGWF       PACKAGE NPF             CONNECTED TO MODEL FREMONTGWF       PACKAGE NPF              ON UNIT   1015 AT TIME STEP      3, STRESS PERIOD      6
 UBDSV06 SAVING              CHD IN MODEL FREMONTGWF       PACKAGE FREMONTGWF      CONNECTED TO MODEL FREMONTGWF       PACKAGE CHD_0            ON UNIT   1015 AT TIME STEP      3, STRESS PERIOD      6

 HEAD WILL BE SAVED ON UNIT 1016 AT END OF TIME STEP    3, STRESS PERIOD    6

end timestep


start timestep kper="6" kstp="4" mode="normal"

 UBDSV1 SAVING     FLOW-JA-FACE ON UNIT   1015 AT TIME STEP      4, STRESS PERIOD      6
 UBDSV06 SAVING       DATA-SPDIS IN MODEL FREMONTGWF       PACKAGE NPF             CONNECTED TO MODEL FREMONTGWF       PACKAGE NPF              ON UNIT   1015 AT TIME STEP      4, STRESS PERIOD      6
 UBDSV06 SAVING         DATA-SAT IN MODEL FREMONTGWF       PACKAGE NPF             CONNECTED TO MODEL FREMONTGWF       PACKAGE NPF              ON UNIT   1015 AT TIME STEP      4, STRESS PERIOD      6
 UBDSV06 SAVING              CHD IN MODEL FREMONTGWF       PACKAGE FREMONTGWF      CONNECTED TO MODEL FREMONTGWF       PACKAGE CHD_0            ON UNIT   1015 AT TIME STEP      4, STRESS PERIOD      6

 HEAD WILL BE SAVED ON UNIT 1016 AT END OF TIME STEP    4, STRESS PERIOD    6


  VOLUME BUDGET FOR ENTIRE MODEL AT END OF TIME STEP    4, STRESS PERIOD   6
  ---------------------------------------------------------------------------------------------------

     CUMULATIVE VOLUME      L**3       RATES FOR THIS TIME STEP      L**3/T          PACKAGE NAME    
     ------------------                 ------------------------                     ----------------

           IN:                                      IN:
           ---                                      ---
                 CHD =         670.1239                   CHD =           3.3443     CHD_0           

            TOTAL IN =         670.1239              TOTAL IN =           3.3443

          OUT:                                     OUT:
          ----                                     ----
                 CHD =         670.1239                   CHD =           3.3443     CHD_0           

           TOTAL OUT =         670.1239             TOTAL OUT =           3.3443

            IN - OUT =       1.4239E-07              IN - OUT =       1.4835E-09

 PERCENT DISCREPANCY =           0.00     PERCENT DISCREPANCY =           0.00




         TIME SUMMARY AT END OF TIME STEP    4 IN STRESS PERIOD    6
                    SECONDS     MINUTES      HOURS       DAYS        YEARS
                    -----------------------------------------------------------
   TIME STEP LENGTH 9.07317E+05  15122.      252.03      10.501     2.87511E-02
 STRESS PERIOD TIME 2.67840E+06  44640.      744.00      31.000     8.48734E-02
         TOTAL TIME 1.57248E+07 2.62080E+05  4368.0      182.00     0.49829    


end timestep


start timestep kper="7" kstp="1" mode="normal"


 OUTPUT CONTROL FOR STRESS PERIOD 7 IS REPEATED USING SETTINGS FROM A PREVIOUS STRESS PERIOD.

 REUSING CHDS FROM LAST STRESS PERIOD
 UBDSV1 SAVING     FLOW-JA-FACE ON UNIT   1015 AT TIME STEP      1, STRESS PERIOD      7
 UBDSV06 SAVING       DATA-SPDIS IN MODEL FREMONTGWF       PACKAGE NPF             CONNECTED TO MODEL FREMONTGWF       PACKAGE NPF              ON UNIT   1015 AT TIME STEP      1, STRESS PERIOD      7
 UBDSV06 SAVING         DATA-SAT IN MODEL FREMONTGWF       PACKAGE NPF             CONNECTED TO MODEL FREMONTGWF       PACKAGE NPF              ON UNIT   1015 AT TIME STEP      1, STRESS PERIOD      7
 UBDSV06 SAVING              CHD IN MODEL FREMONTGWF       PACKAGE FREMONTGWF      CONNECTED TO MODEL FREMONTGWF       PACKAGE CHD_0            ON UNIT   1015 AT TIME STEP      1, STRESS PERIOD      7

 HEAD WILL BE SAVED ON UNIT 1016 AT END OF TIME STEP    1, STRESS PERIOD    7

end timestep


start timestep kper="7" kstp="2" mode="normal"

 UBDSV1 SAVING     FLOW-JA-FACE ON UNIT   1015 AT TIME STEP      2, STRESS PERIOD      7
 UBDSV06 SAVING       DATA-SPDIS IN MODEL FREMONTGWF       PACKAGE NPF             CONNECTED TO MODEL FREMONTGWF       PACKAGE NPF              ON UNIT   1015 AT TIME STEP      2, STRESS PERIOD      7
 UBDSV06 SAVING         DATA-SAT IN MODEL FREMONTGWF       PACKAGE NPF             CONNECTED TO MODEL FREMONTGWF       PACKAGE NPF              ON UNIT   1015 AT TIME STEP      2, STRESS PERIOD      7
 UBDSV06 SAVING              CHD IN MODEL FREMONTGWF       PACKAGE FREMONTGWF      CONNECTED TO MODEL FREMONTGWF       PACKAGE CHD_0            ON UNIT   1015 AT TIME STEP      2, STRESS PERIOD      7

 HEAD WILL BE SAVED ON UNIT 1016 AT END OF TIME STEP    2, STRESS PERIOD    7

end timestep


start timestep kper="7" kstp="3" mode="normal"

 UBDSV1 SAVING     FLOW-JA-FACE ON UNIT   1015 AT TIME STEP      3, STRESS PERIOD      7
 UBDSV06 SAVING       DATA-SPDIS IN MODEL FREMONTGWF       PACKAGE NPF             CONNECTED TO MODEL FREMONTGWF       PACKAGE NPF              ON UNIT   1015 AT TIME STEP      3, STRESS PERIOD      7
 UBDSV06 SAVING         DATA-SAT IN MODEL FREMONTGWF       PACKAGE NPF             CONNECTED TO MODEL FREMONTGWF       PACKAGE NPF              ON UNIT   1015 AT TIME STEP      3, STRESS PERIOD      7
 UBDSV06 SAVING              CHD IN MODEL FREMONTGWF       PACKAGE FREMONTGWF      CONNECTED TO MODEL FREMONTGWF       PACKAGE CHD_0            ON UNIT   1015 AT TIME STEP      3, STRESS PERIOD      7

 HEAD WILL BE SAVED ON UNIT 1016 AT END OF TIME STEP    3, STRESS PERIOD    7

end timestep


start timestep kper="7" kstp="4" mode="normal"

 UBDSV1 SAVING     FLOW-JA-FACE ON UNIT   1015 AT TIME STEP      4, STRESS PERIOD      7
 UBDSV06 SAVING       DATA-SPDIS IN MODEL FREMONTGWF       PACKAGE NPF             CONNECTED TO MODEL FREMONTGWF       PACKAGE NPF              ON UNIT   1015 AT TIME STEP      4, STRESS PERIOD      7
 UBDSV06 SAVING         DATA-SAT IN MODEL FREMONTGWF       PACKAGE NPF             CONNECTED TO MODEL FREMONTGWF       PACKAGE NPF              ON UNIT   1015 AT TIME STEP      4, STRESS PERIOD      7
 UBDSV06 SAVING              CHD IN MODEL FREMONTGWF       PACKAGE FREMONTGWF      CONNECTED TO MODEL FREMONTGWF       PACKAGE CHD_0            ON UNIT   1015 AT TIME STEP      4, STRESS PERIOD      7

 HEAD WILL BE SAVED ON UNIT 1016 AT END OF TIME STEP    4, STRESS PERIOD    7


  VOLUME BUDGET FOR ENTIRE MODEL AT END OF TIME STEP    4, STRESS PERIOD   7
  ---------------------------------------------------------------------------------------------------

     CUMULATIVE VOLUME      L**3       RATES FOR THIS TIME STEP      L**3/T          PACKAGE NAME    
     ------------------                 ------------------------                     ----------------

           IN:                                      IN:
           ---                                      ---
                 CHD =         768.3090                   CHD =           3.2299     CHD_0           

            TOTAL IN =         768.3090              TOTAL IN =           3.2299

          OUT:                                     OUT:
          ----                                     ----
                 CHD =         768.3090                   CHD =           3.2299     CHD_0           

           TOTAL OUT =         768.3090             TOTAL OUT =           3.2299

            IN - OUT =       1.6494E-07              IN - OUT =       1.4295E-09

 PERCENT DISCREPANCY =           0.00     PERCENT DISCREPANCY =           0.00




         TIME SUMMARY AT END OF TIME STEP    4 IN STRESS PERIOD    7
                    SECONDS     MINUTES      HOURS       DAYS        YEARS
                    -----------------------------------------------------------
   TIME STEP LENGTH 8.78049E+05  14634.      243.90      10.163     2.78237E-02
 STRESS PERIOD TIME 2.59200E+06  43200.      720.00      30.000     8.21355E-02
         TOTAL TIME 1.83168E+07 3.05280E+05  5088.0      212.00     0.58042    


end timestep


start timestep kper="8" kstp="1" mode="normal"


 OUTPUT CONTROL FOR STRESS PERIOD 8 IS REPEATED USING SETTINGS FROM A PREVIOUS STRESS PERIOD.

 REUSING CHDS FROM LAST STRESS PERIOD
 UBDSV1 SAVING     FLOW-JA-FACE ON UNIT   1015 AT TIME STEP      1, STRESS PERIOD      8
 UBDSV06 SAVING       DATA-SPDIS IN MODEL FREMONTGWF       PACKAGE NPF             CONNECTED TO MODEL FREMONTGWF       PACKAGE NPF              ON UNIT   1015 AT TIME STEP      1, STRESS PERIOD      8
 UBDSV06 SAVING         DATA-SAT IN MODEL FREMONTGWF       PACKAGE NPF             CONNECTED TO MODEL FREMONTGWF       PACKAGE NPF              ON UNIT   1015 AT TIME STEP      1, STRESS PERIOD      8
 UBDSV06 SAVING              CHD IN MODEL FREMONTGWF       PACKAGE FREMONTGWF      CONNECTED TO MODEL FREMONTGWF       PACKAGE CHD_0            ON UNIT   1015 AT TIME STEP      1, STRESS PERIOD      8

 HEAD WILL BE SAVED ON UNIT 1016 AT END OF TIME STEP    1, STRESS PERIOD    8

end timestep


start timestep kper="8" kstp="2" mode="normal"

 UBDSV1 SAVING     FLOW-JA-FACE ON UNIT   1015 AT TIME STEP      2, STRESS PERIOD      8
 UBDSV06 SAVING       DATA-SPDIS IN MODEL FREMONTGWF       PACKAGE NPF             CONNECTED TO MODEL FREMONTGWF       PACKAGE NPF              ON UNIT   1015 AT TIME STEP      2, STRESS PERIOD      8
 UBDSV06 SAVING         DATA-SAT IN MODEL FREMONTGWF       PACKAGE NPF             CONNECTED TO MODEL FREMONTGWF       PACKAGE NPF              ON UNIT   1015 AT TIME STEP      2, STRESS PERIOD      8
 UBDSV06 SAVING              CHD IN MODEL FREMONTGWF       PACKAGE FREMONTGWF      CONNECTED TO MODEL FREMONTGWF       PACKAGE CHD_0            ON UNIT   1015 AT TIME STEP      2, STRESS PERIOD      8

 HEAD WILL BE SAVED ON UNIT 1016 AT END OF TIME STEP    2, STRESS PERIOD    8

end timestep


start timestep kper="8" kstp="3" mode="normal"

 UBDSV1 SAVING     FLOW-JA-FACE ON UNIT   1015 AT TIME STEP      3, STRESS PERIOD      8
 UBDSV06 SAVING       DATA-SPDIS IN MODEL FREMONTGWF       PACKAGE NPF             CONNECTED TO MODEL FREMONTGWF       PACKAGE NPF              ON UNIT   1015 AT TIME STEP      3, STRESS PERIOD      8
 UBDSV06 SAVING         DATA-SAT IN MODEL FREMONTGWF       PACKAGE NPF             CONNECTED TO MODEL FREMONTGWF       PACKAGE NPF              ON UNIT   1015 AT TIME STEP      3, STRESS PERIOD      8
 UBDSV06 SAVING              CHD IN MODEL FREMONTGWF       PACKAGE FREMONTGWF      CONNECTED TO MODEL FREMONTGWF       PACKAGE CHD_0            ON UNIT   1015 AT TIME STEP      3, STRESS PERIOD      8

 HEAD WILL BE SAVED ON UNIT 1016 AT END OF TIME STEP    3, STRESS PERIOD    8

end timestep


start timestep kper="8" kstp="4" mode="normal"

 UBDSV1 SAVING     FLOW-JA-FACE ON UNIT   1015 AT TIME STEP      4, STRESS PERIOD      8
 UBDSV06 SAVING       DATA-SPDIS IN MODEL FREMONTGWF       PACKAGE NPF             CONNECTED TO MODEL FREMONTGWF       PACKAGE NPF              ON UNIT   1015 AT TIME STEP      4, STRESS PERIOD      8
 UBDSV06 SAVING         DATA-SAT IN MODEL FREMONTGWF       PACKAGE NPF             CONNECTED TO MODEL FREMONTGWF       PACKAGE NPF              ON UNIT   1015 AT TIME STEP      4, STRESS PERIOD      8
 UBDSV06 SAVING              CHD IN MODEL FREMONTGWF       PACKAGE FREMONTGWF      CONNECTED TO MODEL FREMONTGWF       PACKAGE CHD_0            ON UNIT   1015 AT TIME STEP      4, STRESS PERIOD      8

 HEAD WILL BE SAVED ON UNIT 1016 AT END OF TIME STEP    4, STRESS PERIOD    8


  VOLUME BUDGET FOR ENTIRE MODEL AT END OF TIME STEP    4, STRESS PERIOD   8
  ---------------------------------------------------------------------------------------------------

     CUMULATIVE VOLUME      L**3       RATES FOR THIS TIME STEP      L**3/T          PACKAGE NAME    
     ------------------                 ------------------------                     ----------------

           IN:                                      IN:
           ---                                      ---
                 CHD =         868.0140                   CHD =           3.2169     CHD_0           

            TOTAL IN =         868.0140              TOTAL IN =           3.2169

          OUT:                                     OUT:
          ----                                     ----
                 CHD =         868.0140                   CHD =           3.2169     CHD_0           

           TOTAL OUT =         868.0140             TOTAL OUT =           3.2169

            IN - OUT =       1.6993E-07              IN - OUT =       3.9832E-10

 PERCENT DISCREPANCY =           0.00     PERCENT DISCREPANCY =           0.00




         TIME SUMMARY AT END OF TIME STEP    4 IN STRESS PERIOD    8
                    SECONDS     MINUTES      HOURS       DAYS        YEARS
                    -----------------------------------------------------------
   TIME STEP LENGTH 9.07317E+05  15122.      252.03      10.501     2.87511E-02
 STRESS PERIOD TIME 2.67840E+06  44640.      744.00      31.000     8.48734E-02
         TOTAL TIME 2.09952E+07 3.49920E+05  5832.0      243.00     0.66530    


end timestep


start timestep kper="9" kstp="1" mode="normal"


 OUTPUT CONTROL FOR STRESS PERIOD 9 IS REPEATED USING SETTINGS FROM A PREVIOUS STRESS PERIOD.

 REUSING CHDS FROM LAST STRESS PERIOD
 UBDSV1 SAVING     FLOW-JA-FACE ON UNIT   1015 AT TIME STEP      1, STRESS PERIOD      9
 UBDSV06 SAVING       DATA-SPDIS IN MODEL FREMONTGWF       PACKAGE NPF             CONNECTED TO MODEL FREMONTGWF       PACKAGE NPF              ON UNIT   1015 AT TIME STEP      1, STRESS PERIOD      9
 UBDSV06 SAVING         DATA-SAT IN MODEL FREMONTGWF       PACKAGE NPF             CONNECTED TO MODEL FREMONTGWF       PACKAGE NPF              ON UNIT   1015 AT TIME STEP      1, STRESS PERIOD      9
 UBDSV06 SAVING              CHD IN MODEL FREMONTGWF       PACKAGE FREMONTGWF      CONNECTED TO MODEL FREMONTGWF       PACKAGE CHD_0            ON UNIT   1015 AT TIME STEP      1, STRESS PERIOD      9

 HEAD WILL BE SAVED ON UNIT 1016 AT END OF TIME STEP    1, STRESS PERIOD    9

end timestep


start timestep kper="9" kstp="2" mode="normal"

 UBDSV1 SAVING     FLOW-JA-FACE ON UNIT   1015 AT TIME STEP      2, STRESS PERIOD      9
 UBDSV06 SAVING       DATA-SPDIS IN MODEL FREMONTGWF       PACKAGE NPF             CONNECTED TO MODEL FREMONTGWF       PACKAGE NPF              ON UNIT   1015 AT TIME STEP      2, STRESS PERIOD      9
 UBDSV06 SAVING         DATA-SAT IN MODEL FREMONTGWF       PACKAGE NPF             CONNECTED TO MODEL FREMONTGWF       PACKAGE NPF              ON UNIT   1015 AT TIME STEP      2, STRESS PERIOD      9
 UBDSV06 SAVING              CHD IN MODEL FREMONTGWF       PACKAGE FREMONTGWF      CONNECTED TO MODEL FREMONTGWF       PACKAGE CHD_0            ON UNIT   1015 AT TIME STEP      2, STRESS PERIOD      9

 HEAD WILL BE SAVED ON UNIT 1016 AT END OF TIME STEP    2, STRESS PERIOD    9

end timestep


start timestep kper="9" kstp="3" mode="normal"

 UBDSV1 SAVING     FLOW-JA-FACE ON UNIT   1015 AT TIME STEP      3, STRESS PERIOD      9
 UBDSV06 SAVING       DATA-SPDIS IN MODEL FREMONTGWF       PACKAGE NPF             CONNECTED TO MODEL FREMONTGWF       PACKAGE NPF              ON UNIT   1015 AT TIME STEP      3, STRESS PERIOD      9
 UBDSV06 SAVING         DATA-SAT IN MODEL FREMONTGWF       PACKAGE NPF             CONNECTED TO MODEL FREMONTGWF       PACKAGE NPF              ON UNIT   1015 AT TIME STEP      3, STRESS PERIOD      9
 UBDSV06 SAVING              CHD IN MODEL FREMONTGWF       PACKAGE FREMONTGWF      CONNECTED TO MODEL FREMONTGWF       PACKAGE CHD_0            ON UNIT   1015 AT TIME STEP      3, STRESS PERIOD      9

 HEAD WILL BE SAVED ON UNIT 1016 AT END OF TIME STEP    3, STRESS PERIOD    9

end timestep


start timestep kper="9" kstp="4" mode="normal"

 UBDSV1 SAVING     FLOW-JA-FACE ON UNIT   1015 AT TIME STEP      4, STRESS PERIOD      9
 UBDSV06 SAVING       DATA-SPDIS IN MODEL FREMONTGWF       PACKAGE NPF             CONNECTED TO MODEL FREMONTGWF       PACKAGE NPF              ON UNIT   1015 AT TIME STEP      4, STRESS PERIOD      9
 UBDSV06 SAVING         DATA-SAT IN MODEL FREMONTGWF       PACKAGE NPF             CONNECTED TO MODEL FREMONTGWF       PACKAGE NPF              ON UNIT   1015 AT TIME STEP      4, STRESS PERIOD      9
 UBDSV06 SAVING              CHD IN MODEL FREMONTGWF       PACKAGE FREMONTGWF      CONNECTED TO MODEL FREMONTGWF       PACKAGE CHD_0            ON UNIT   1015 AT TIME STEP      4, STRESS PERIOD      9

 HEAD WILL BE SAVED ON UNIT 1016 AT END OF TIME STEP    4, STRESS PERIOD    9


  VOLUME BUDGET FOR ENTIRE MODEL AT END OF TIME STEP    4, STRESS PERIOD   9
  ---------------------------------------------------------------------------------------------------

     CUMULATIVE VOLUME      L**3       RATES FOR THIS TIME STEP      L**3/T          PACKAGE NAME    
     ------------------                 ------------------------                     ----------------

           IN:                                      IN:
           ---                                      ---
                 CHD =         966.8583                   CHD =           3.1727     CHD_0           

            TOTAL IN =         966.8583              TOTAL IN =           3.1727

          OUT:                                     OUT:
          ----                                     ----
                 CHD =         966.8583                   CHD =           3.1727     CHD_0           

           TOTAL OUT =         966.8583             TOTAL OUT =           3.1727

            IN - OUT =       1.7232E-07              IN - OUT =       2.2757E-10

 PERCENT DISCREPANCY =           0.00     PERCENT DISCREPANCY =           0.00




         TIME SUMMARY AT END OF TIME STEP    4 IN STRESS PERIOD    9
                    SECONDS     MINUTES      HOURS       DAYS        YEARS
                    -----------------------------------------------------------
   TIME STEP LENGTH 9.07317E+05  15122.      252.03      10.501     2.87511E-02
 STRESS PERIOD TIME 2.67840E+06  44640.      744.00      31.000     8.48734E-02
         TOTAL TIME 2.36736E+07 3.94560E+05  6576.0      274.00     0.75017    


end timestep


start timestep kper="10" kstp="1" mode="normal"


 OUTPUT CONTROL FOR STRESS PERIOD 10 IS REPEATED USING SETTINGS FROM A PREVIOUS STRESS PERIOD.

 REUSING CHDS FROM LAST STRESS PERIOD
 UBDSV1 SAVING     FLOW-JA-FACE ON UNIT   1015 AT TIME STEP      1, STRESS PERIOD     10
 UBDSV06 SAVING       DATA-SPDIS IN MODEL FREMONTGWF       PACKAGE NPF             CONNECTED TO MODEL FREMONTGWF       PACKAGE NPF              ON UNIT   1015 AT TIME STEP      1, STRESS PERIOD     10
 UBDSV06 SAVING         DATA-SAT IN MODEL FREMONTGWF       PACKAGE NPF             CONNECTED TO MODEL FREMONTGWF       PACKAGE NPF              ON UNIT   1015 AT TIME STEP      1, STRESS PERIOD     10
 UBDSV06 SAVING              CHD IN MODEL FREMONTGWF       PACKAGE FREMONTGWF      CONNECTED TO MODEL FREMONTGWF       PACKAGE CHD_0            ON UNIT   1015 AT TIME STEP      1, STRESS PERIOD     10

 HEAD WILL BE SAVED ON UNIT 1016 AT END OF TIME STEP    1, STRESS PERIOD   10

end timestep


start timestep kper="10" kstp="2" mode="normal"

 UBDSV1 SAVING     FLOW-JA-FACE ON UNIT   1015 AT TIME STEP      2, STRESS PERIOD     10
 UBDSV06 SAVING       DATA-SPDIS IN MODEL FREMONTGWF       PACKAGE NPF             CONNECTED TO MODEL FREMONTGWF       PACKAGE NPF              ON UNIT   1015 AT TIME STEP      2, STRESS PERIOD     10
 UBDSV06 SAVING         DATA-SAT IN MODEL FREMONTGWF       PACKAGE NPF             CONNECTED TO MODEL FREMONTGWF       PACKAGE NPF              ON UNIT   1015 AT TIME STEP      2, STRESS PERIOD     10
 UBDSV06 SAVING              CHD IN MODEL FREMONTGWF       PACKAGE FREMONTGWF      CONNECTED TO MODEL FREMONTGWF       PACKAGE CHD_0            ON UNIT   1015 AT TIME STEP      2, STRESS PERIOD     10

 HEAD WILL BE SAVED ON UNIT 1016 AT END OF TIME STEP    2, STRESS PERIOD   10

end timestep


start timestep kper="10" kstp="3" mode="normal"

 UBDSV1 SAVING     FLOW-JA-FACE ON UNIT   1015 AT TIME STEP      3, STRESS PERIOD     10
 UBDSV06 SAVING       DATA-SPDIS IN MODEL FREMONTGWF       PACKAGE NPF             CONNECTED TO MODEL FREMONTGWF       PACKAGE NPF              ON UNIT   1015 AT TIME STEP      3, STRESS PERIOD     10
 UBDSV06 SAVING         DATA-SAT IN MODEL FREMONTGWF       PACKAGE NPF             CONNECTED TO MODEL FREMONTGWF       PACKAGE NPF              ON UNIT   1015 AT TIME STEP      3, STRESS PERIOD     10
 UBDSV06 SAVING              CHD IN MODEL FREMONTGWF       PACKAGE FREMONTGWF      CONNECTED TO MODEL FREMONTGWF       PACKAGE CHD_0            ON UNIT   1015 AT TIME STEP      3, STRESS PERIOD     10

 HEAD WILL BE SAVED ON UNIT 1016 AT END OF TIME STEP    3, STRESS PERIOD   10

end timestep


start timestep kper="10" kstp="4" mode="normal"

 UBDSV1 SAVING     FLOW-JA-FACE ON UNIT   1015 AT TIME STEP      4, STRESS PERIOD     10
 UBDSV06 SAVING       DATA-SPDIS IN MODEL FREMONTGWF       PACKAGE NPF             CONNECTED TO MODEL FREMONTGWF       PACKAGE NPF              ON UNIT   1015 AT TIME STEP      4, STRESS PERIOD     10
 UBDSV06 SAVING         DATA-SAT IN MODEL FREMONTGWF       PACKAGE NPF             CONNECTED TO MODEL FREMONTGWF       PACKAGE NPF              ON UNIT   1015 AT TIME STEP      4, STRESS PERIOD     10
 UBDSV06 SAVING              CHD IN MODEL FREMONTGWF       PACKAGE FREMONTGWF      CONNECTED TO MODEL FREMONTGWF       PACKAGE CHD_0            ON UNIT   1015 AT TIME STEP      4, STRESS PERIOD     10

 HEAD WILL BE SAVED ON UNIT 1016 AT END OF TIME STEP    4, STRESS PERIOD   10


  VOLUME BUDGET FOR ENTIRE MODEL AT END OF TIME STEP    4, STRESS PERIOD  10
  ---------------------------------------------------------------------------------------------------

     CUMULATIVE VOLUME      L**3       RATES FOR THIS TIME STEP      L**3/T          PACKAGE NAME    
     ------------------                 ------------------------                     ----------------

           IN:                                      IN:
           ---                                      ---
                 CHD =        1063.1899                   CHD =           3.3370     CHD_0           

            TOTAL IN =        1063.1899              TOTAL IN =           3.3370

          OUT:                                     OUT:
          ----                                     ----
                 CHD =        1063.1899                   CHD =           3.3370     CHD_0           

           TOTAL OUT =        1063.1899             TOTAL OUT =           3.3370

            IN - OUT =       4.4265E-08              IN - OUT =       7.3303E-09

 PERCENT DISCREPANCY =           0.00     PERCENT DISCREPANCY =          -0.00




         TIME SUMMARY AT END OF TIME STEP    4 IN STRESS PERIOD   10
                    SECONDS     MINUTES      HOURS       DAYS        YEARS
                    -----------------------------------------------------------
   TIME STEP LENGTH 8.78049E+05  14634.      243.90      10.163     2.78237E-02
 STRESS PERIOD TIME 2.59200E+06  43200.      720.00      30.000     8.21355E-02
         TOTAL TIME 2.62656E+07 4.37760E+05  7296.0      304.00     0.83231    


end timestep


start timestep kper="11" kstp="1" mode="normal"


 OUTPUT CONTROL FOR STRESS PERIOD 11 IS REPEATED USING SETTINGS FROM A PREVIOUS STRESS PERIOD.

 REUSING CHDS FROM LAST STRESS PERIOD
 UBDSV1 SAVING     FLOW-JA-FACE ON UNIT   1015 AT TIME STEP      1, STRESS PERIOD     11
 UBDSV06 SAVING       DATA-SPDIS IN MODEL FREMONTGWF       PACKAGE NPF             CONNECTED TO MODEL FREMONTGWF       PACKAGE NPF              ON UNIT   1015 AT TIME STEP      1, STRESS PERIOD     11
 UBDSV06 SAVING         DATA-SAT IN MODEL FREMONTGWF       PACKAGE NPF             CONNECTED TO MODEL FREMONTGWF       PACKAGE NPF              ON UNIT   1015 AT TIME STEP      1, STRESS PERIOD     11
 UBDSV06 SAVING              CHD IN MODEL FREMONTGWF       PACKAGE FREMONTGWF      CONNECTED TO MODEL FREMONTGWF       PACKAGE CHD_0            ON UNIT   1015 AT TIME STEP      1, STRESS PERIOD     11

 HEAD WILL BE SAVED ON UNIT 1016 AT END OF TIME STEP    1, STRESS PERIOD   11

end timestep


start timestep kper="11" kstp="2" mode="normal"

 UBDSV1 SAVING     FLOW-JA-FACE ON UNIT   1015 AT TIME STEP      2, STRESS PERIOD     11
 UBDSV06 SAVING       DATA-SPDIS IN MODEL FREMONTGWF       PACKAGE NPF             CONNECTED TO MODEL FREMONTGWF       PACKAGE NPF              ON UNIT   1015 AT TIME STEP      2, STRESS PERIOD     11
 UBDSV06 SAVING         DATA-SAT IN MODEL FREMONTGWF       PACKAGE NPF             CONNECTED TO MODEL FREMONTGWF       PACKAGE NPF              ON UNIT   1015 AT TIME STEP      2, STRESS PERIOD     11
 UBDSV06 SAVING              CHD IN MODEL FREMONTGWF       PACKAGE FREMONTGWF      CONNECTED TO MODEL FREMONTGWF       PACKAGE CHD_0            ON UNIT   1015 AT TIME STEP      2, STRESS PERIOD     11

 HEAD WILL BE SAVED ON UNIT 1016 AT END OF TIME STEP    2, STRESS PERIOD   11

end timestep


start timestep kper="11" kstp="3" mode="normal"

 UBDSV1 SAVING     FLOW-JA-FACE ON UNIT   1015 AT TIME STEP      3, STRESS PERIOD     11
 UBDSV06 SAVING       DATA-SPDIS IN MODEL FREMONTGWF       PACKAGE NPF             CONNECTED TO MODEL FREMONTGWF       PACKAGE NPF              ON UNIT   1015 AT TIME STEP      3, STRESS PERIOD     11
 UBDSV06 SAVING         DATA-SAT IN MODEL FREMONTGWF       PACKAGE NPF             CONNECTED TO MODEL FREMONTGWF       PACKAGE NPF              ON UNIT   1015 AT TIME STEP      3, STRESS PERIOD     11
 UBDSV06 SAVING              CHD IN MODEL FREMONTGWF       PACKAGE FREMONTGWF      CONNECTED TO MODEL FREMONTGWF       PACKAGE CHD_0            ON UNIT   1015 AT TIME STEP      3, STRESS PERIOD     11

 HEAD WILL BE SAVED ON UNIT 1016 AT END OF TIME STEP    3, STRESS PERIOD   11

end timestep


start timestep kper="11" kstp="4" mode="normal"

 UBDSV1 SAVING     FLOW-JA-FACE ON UNIT   1015 AT TIME STEP      4, STRESS PERIOD     11
 UBDSV06 SAVING       DATA-SPDIS IN MODEL FREMONTGWF       PACKAGE NPF             CONNECTED TO MODEL FREMONTGWF       PACKAGE NPF              ON UNIT   1015 AT TIME STEP      4, STRESS PERIOD     11
 UBDSV06 SAVING         DATA-SAT IN MODEL FREMONTGWF       PACKAGE NPF             CONNECTED TO MODEL FREMONTGWF       PACKAGE NPF              ON UNIT   1015 AT TIME STEP      4, STRESS PERIOD     11
 UBDSV06 SAVING              CHD IN MODEL FREMONTGWF       PACKAGE FREMONTGWF      CONNECTED TO MODEL FREMONTGWF       PACKAGE CHD_0            ON UNIT   1015 AT TIME STEP      4, STRESS PERIOD     11

 HEAD WILL BE SAVED ON UNIT 1016 AT END OF TIME STEP    4, STRESS PERIOD   11


  VOLUME BUDGET FOR ENTIRE MODEL AT END OF TIME STEP    4, STRESS PERIOD  11
  ---------------------------------------------------------------------------------------------------

     CUMULATIVE VOLUME      L**3       RATES FOR THIS TIME STEP      L**3/T          PACKAGE NAME    
     ------------------                 ------------------------                     ----------------

           IN:                                      IN:
           ---                                      ---
                 CHD =        1167.8715                   CHD =           3.4419     CHD_0           

            TOTAL IN =        1167.8715              TOTAL IN =           3.4419

          OUT:                                     OUT:
          ----                                     ----
                 CHD =        1167.8715                   CHD =           3.4419     CHD_0           

           TOTAL OUT =        1167.8715             TOTAL OUT =           3.4419

            IN - OUT =       5.7021E-09              IN - OUT =       1.7321E-09

 PERCENT DISCREPANCY =          -0.00     PERCENT DISCREPANCY =          -0.00




         TIME SUMMARY AT END OF TIME STEP    4 IN STRESS PERIOD   11
                    SECONDS     MINUTES      HOURS       DAYS        YEARS
                    -----------------------------------------------------------
   TIME STEP LENGTH 9.07317E+05  15122.      252.03      10.501     2.87511E-02
 STRESS PERIOD TIME 2.67840E+06  44640.      744.00      31.000     8.48734E-02
         TOTAL TIME 2.89440E+07 4.82400E+05  8040.0      335.00     0.91718    


end timestep


start timestep kper="12" kstp="1" mode="normal"


 OUTPUT CONTROL FOR STRESS PERIOD 12 IS REPEATED USING SETTINGS FROM A PREVIOUS STRESS PERIOD.

 REUSING CHDS FROM LAST STRESS PERIOD
 UBDSV1 SAVING     FLOW-JA-FACE ON UNIT   1015 AT TIME STEP      1, STRESS PERIOD     12
 UBDSV06 SAVING       DATA-SPDIS IN MODEL FREMONTGWF       PACKAGE NPF             CONNECTED TO MODEL FREMONTGWF       PACKAGE NPF              ON UNIT   1015 AT TIME STEP      1, STRESS PERIOD     12
 UBDSV06 SAVING         DATA-SAT IN MODEL FREMONTGWF       PACKAGE NPF             CONNECTED TO MODEL FREMONTGWF       PACKAGE NPF              ON UNIT   1015 AT TIME STEP      1, STRESS PERIOD     12
 UBDSV06 SAVING              CHD IN MODEL FREMONTGWF       PACKAGE FREMONTGWF      CONNECTED TO MODEL FREMONTGWF       PACKAGE CHD_0            ON UNIT   1015 AT TIME STEP      1, STRESS PERIOD     12

 HEAD WILL BE SAVED ON UNIT 1016 AT END OF TIME STEP    1, STRESS PERIOD   12

end timestep


start timestep kper="12" kstp="2" mode="normal"

 UBDSV1 SAVING     FLOW-JA-FACE ON UNIT   1015 AT TIME STEP      2, STRESS PERIOD     12
 UBDSV06 SAVING       DATA-SPDIS IN MODEL FREMONTGWF       PACKAGE NPF             CONNECTED TO MODEL FREMONTGWF       PACKAGE NPF              ON UNIT   1015 AT TIME STEP      2, STRESS PERIOD     12
 UBDSV06 SAVING         DATA-SAT IN MODEL FREMONTGWF       PACKAGE NPF             CONNECTED TO MODEL FREMONTGWF       PACKAGE NPF              ON UNIT   1015 AT TIME STEP      2, STRESS PERIOD     12
 UBDSV06 SAVING              CHD IN MODEL FREMONTGWF       PACKAGE FREMONTGWF      CONNECTED TO MODEL FREMONTGWF       PACKAGE CHD_0            ON UNIT   1015 AT TIME STEP      2, STRESS PERIOD     12

 HEAD WILL BE SAVED ON UNIT 1016 AT END OF TIME STEP    2, STRESS PERIOD   12

end timestep


start timestep kper="12" kstp="3" mode="normal"

 UBDSV1 SAVING     FLOW-JA-FACE ON UNIT   1015 AT TIME STEP      3, STRESS PERIOD     12
 UBDSV06 SAVING       DATA-SPDIS IN MODEL FREMONTGWF       PACKAGE NPF             CONNECTED TO MODEL FREMONTGWF       PACKAGE NPF              ON UNIT   1015 AT TIME STEP      3, STRESS PERIOD     12
 UBDSV06 SAVING         DATA-SAT IN MODEL FREMONTGWF       PACKAGE NPF             CONNECTED TO MODEL FREMONTGWF       PACKAGE NPF              ON UNIT   1015 AT TIME STEP      3, STRESS PERIOD     12
 UBDSV06 SAVING              CHD IN MODEL FREMONTGWF       PACKAGE FREMONTGWF      CONNECTED TO MODEL FREMONTGWF       PACKAGE CHD_0            ON UNIT   1015 AT TIME STEP      3, STRESS PERIOD     12

 HEAD WILL BE SAVED ON UNIT 1016 AT END OF TIME STEP    3, STRESS PERIOD   12

end timestep


start timestep kper="12" kstp="4" mode="normal"

 UBDSV1 SAVING     FLOW-JA-FACE ON UNIT   1015 AT TIME STEP      4, STRESS PERIOD     12
 UBDSV06 SAVING       DATA-SPDIS IN MODEL FREMONTGWF       PACKAGE NPF             CONNECTED TO MODEL FREMONTGWF       PACKAGE NPF              ON UNIT   1015 AT TIME STEP      4, STRESS PERIOD     12
 UBDSV06 SAVING         DATA-SAT IN MODEL FREMONTGWF       PACKAGE NPF             CONNECTED TO MODEL FREMONTGWF       PACKAGE NPF              ON UNIT   1015 AT TIME STEP      4, STRESS PERIOD     12
 UBDSV06 SAVING              CHD IN MODEL FREMONTGWF       PACKAGE FREMONTGWF      CONNECTED TO MODEL FREMONTGWF       PACKAGE CHD_0            ON UNIT   1015 AT TIME STEP      4, STRESS PERIOD     12

 HEAD WILL BE SAVED ON UNIT 1016 AT END OF TIME STEP    4, STRESS PERIOD   12


  VOLUME BUDGET FOR ENTIRE MODEL AT END OF TIME STEP    4, STRESS PERIOD  12
  ---------------------------------------------------------------------------------------------------

     CUMULATIVE VOLUME      L**3       RATES FOR THIS TIME STEP      L**3/T          PACKAGE NAME    
     ------------------                 ------------------------                     ----------------

           IN:                                      IN:
           ---                                      ---
                 CHD =        1289.4478                   CHD =           4.2787     CHD_0           

            TOTAL IN =        1289.4478              TOTAL IN =           4.2787

          OUT:                                     OUT:
          ----                                     ----
                 CHD =        1289.4478                   CHD =           4.2787     CHD_0           

           TOTAL OUT =        1289.4478             TOTAL OUT =           4.2787

            IN - OUT =       1.9617E-07              IN - OUT =       7.0148E-09

 PERCENT DISCREPANCY =          -0.00     PERCENT DISCREPANCY =          -0.00




         TIME SUMMARY AT END OF TIME STEP    4 IN STRESS PERIOD   12
                    SECONDS     MINUTES      HOURS       DAYS        YEARS
                    -----------------------------------------------------------
   TIME STEP LENGTH 8.78049E+05  14634.      243.90      10.163     2.78237E-02
 STRESS PERIOD TIME 2.59200E+06  43200.      720.00      30.000     8.21355E-02
         TOTAL TIME 3.15360E+07 5.25600E+05  8760.0      365.00     0.99932    


end timestep


start timestep kper="13" kstp="1" mode="normal"


 OUTPUT CONTROL FOR STRESS PERIOD 13 IS REPEATED USING SETTINGS FROM A PREVIOUS STRESS PERIOD.

 REUSING CHDS FROM LAST STRESS PERIOD
 UBDSV1 SAVING     FLOW-JA-FACE ON UNIT   1015 AT TIME STEP      1, STRESS PERIOD     13
 UBDSV06 SAVING       DATA-SPDIS IN MODEL FREMONTGWF       PACKAGE NPF             CONNECTED TO MODEL FREMONTGWF       PACKAGE NPF              ON UNIT   1015 AT TIME STEP      1, STRESS PERIOD     13
 UBDSV06 SAVING         DATA-SAT IN MODEL FREMONTGWF       PACKAGE NPF             CONNECTED TO MODEL FREMONTGWF       PACKAGE NPF              ON UNIT   1015 AT TIME STEP      1, STRESS PERIOD     13
 UBDSV06 SAVING              CHD IN MODEL FREMONTGWF       PACKAGE FREMONTGWF      CONNECTED TO MODEL FREMONTGWF       PACKAGE CHD_0            ON UNIT   1015 AT TIME STEP      1, STRESS PERIOD     13

 HEAD WILL BE SAVED ON UNIT 1016 AT END OF TIME STEP    1, STRESS PERIOD   13

end timestep


start timestep kper="13" kstp="2" mode="normal"

 UBDSV1 SAVING     FLOW-JA-FACE ON UNIT   1015 AT TIME STEP      2, STRESS PERIOD     13
 UBDSV06 SAVING       DATA-SPDIS IN MODEL FREMONTGWF       PACKAGE NPF             CONNECTED TO MODEL FREMONTGWF       PACKAGE NPF              ON UNIT   1015 AT TIME STEP      2, STRESS PERIOD     13
 UBDSV06 SAVING         DATA-SAT IN MODEL FREMONTGWF       PACKAGE NPF             CONNECTED TO MODEL FREMONTGWF       PACKAGE NPF              ON UNIT   1015 AT TIME STEP      2, STRESS PERIOD     13
 UBDSV06 SAVING              CHD IN MODEL FREMONTGWF       PACKAGE FREMONTGWF      CONNECTED TO MODEL FREMONTGWF       PACKAGE CHD_0            ON UNIT   1015 AT TIME STEP      2, STRESS PERIOD     13

 HEAD WILL BE SAVED ON UNIT 1016 AT END OF TIME STEP    2, STRESS PERIOD   13

end timestep


start timestep kper="13" kstp="3" mode="normal"

 UBDSV1 SAVING     FLOW-JA-FACE ON UNIT   1015 AT TIME STEP      3, STRESS PERIOD     13
 UBDSV06 SAVING       DATA-SPDIS IN MODEL FREMONTGWF       PACKAGE NPF             CONNECTED TO MODEL FREMONTGWF       PACKAGE NPF              ON UNIT   1015 AT TIME STEP      3, STRESS PERIOD     13
 UBDSV06 SAVING         DATA-SAT IN MODEL FREMONTGWF       PACKAGE NPF             CONNECTED TO MODEL FREMONTGWF       PACKAGE NPF              ON UNIT   1015 AT TIME STEP      3, STRESS PERIOD     13
 UBDSV06 SAVING              CHD IN MODEL FREMONTGWF       PACKAGE FREMONTGWF      CONNECTED TO MODEL FREMONTGWF       PACKAGE CHD_0            ON UNIT   1015 AT TIME STEP      3, STRESS PERIOD     13

 HEAD WILL BE SAVED ON UNIT 1016 AT END OF TIME STEP    3, STRESS PERIOD   13

end timestep


start timestep kper="13" kstp="4" mode="normal"

 UBDSV1 SAVING     FLOW-JA-FACE ON UNIT   1015 AT TIME STEP      4, STRESS PERIOD     13
 UBDSV06 SAVING       DATA-SPDIS IN MODEL FREMONTGWF       PACKAGE NPF             CONNECTED TO MODEL FREMONTGWF       PACKAGE NPF              ON UNIT   1015 AT TIME STEP      4, STRESS PERIOD     13
 UBDSV06 SAVING         DATA-SAT IN MODEL FREMONTGWF       PACKAGE NPF             CONNECTED TO MODEL FREMONTGWF       PACKAGE NPF              ON UNIT   1015 AT TIME STEP      4, STRESS PERIOD     13
 UBDSV06 SAVING              CHD IN MODEL FREMONTGWF       PACKAGE FREMONTGWF      CONNECTED TO MODEL FREMONTGWF       PACKAGE CHD_0            ON UNIT   1015 AT TIME STEP      4, STRESS PERIOD     13

 HEAD WILL BE SAVED ON UNIT 1016 AT END OF TIME STEP    4, STRESS PERIOD   13


  VOLUME BUDGET FOR ENTIRE MODEL AT END OF TIME STEP    4, STRESS PERIOD  13
  ---------------------------------------------------------------------------------------------------

     CUMULATIVE VOLUME      L**3       RATES FOR THIS TIME STEP      L**3/T          PACKAGE NAME    
     ------------------                 ------------------------                     ----------------

           IN:                                      IN:
           ---                                      ---
                 CHD =        1412.6648                   CHD =           3.8954     CHD_0           

            TOTAL IN =        1412.6648              TOTAL IN =           3.8954

          OUT:                                     OUT:
          ----                                     ----
                 CHD =        1412.6648                   CHD =           3.8954     CHD_0           

           TOTAL OUT =        1412.6648             TOTAL OUT =           3.8954

            IN - OUT =       5.1194E-07              IN - OUT =       2.9409E-09

 PERCENT DISCREPANCY =          -0.00     PERCENT DISCREPANCY =          -0.00




         TIME SUMMARY AT END OF TIME STEP    4 IN STRESS PERIOD   13
                    SECONDS     MINUTES      HOURS       DAYS        YEARS
                    -----------------------------------------------------------
   TIME STEP LENGTH 9.07317E+05  15122.      252.03      10.501     2.87511E-02
 STRESS PERIOD TIME 2.67840E+06  44640.      744.00      31.000     8.48734E-02
         TOTAL TIME 3.42144E+07 5.70240E+05  9504.0      396.00      1.0842    


end timestep


start timestep kper="14" kstp="1" mode="normal"


 OUTPUT CONTROL FOR STRESS PERIOD 14 IS REPEATED USING SETTINGS FROM A PREVIOUS STRESS PERIOD.

 REUSING CHDS FROM LAST STRESS PERIOD
 UBDSV1 SAVING     FLOW-JA-FACE ON UNIT   1015 AT TIME STEP      1, STRESS PERIOD     14
 UBDSV06 SAVING       DATA-SPDIS IN MODEL FREMONTGWF       PACKAGE NPF             CONNECTED TO MODEL FREMONTGWF       PACKAGE NPF              ON UNIT   1015 AT TIME STEP      1, STRESS PERIOD     14
 UBDSV06 SAVING         DATA-SAT IN MODEL FREMONTGWF       PACKAGE NPF             CONNECTED TO MODEL FREMONTGWF       PACKAGE NPF              ON UNIT   1015 AT TIME STEP      1, STRESS PERIOD     14
 UBDSV06 SAVING              CHD IN MODEL FREMONTGWF       PACKAGE FREMONTGWF      CONNECTED TO MODEL FREMONTGWF       PACKAGE CHD_0            ON UNIT   1015 AT TIME STEP      1, STRESS PERIOD     14

 HEAD WILL BE SAVED ON UNIT 1016 AT END OF TIME STEP    1, STRESS PERIOD   14

end timestep


start timestep kper="14" kstp="2" mode="normal"

 UBDSV1 SAVING     FLOW-JA-FACE ON UNIT   1015 AT TIME STEP      2, STRESS PERIOD     14
 UBDSV06 SAVING       DATA-SPDIS IN MODEL FREMONTGWF       PACKAGE NPF             CONNECTED TO MODEL FREMONTGWF       PACKAGE NPF              ON UNIT   1015 AT TIME STEP      2, STRESS PERIOD     14
 UBDSV06 SAVING         DATA-SAT IN MODEL FREMONTGWF       PACKAGE NPF             CONNECTED TO MODEL FREMONTGWF       PACKAGE NPF              ON UNIT   1015 AT TIME STEP      2, STRESS PERIOD     14
 UBDSV06 SAVING              CHD IN MODEL FREMONTGWF       PACKAGE FREMONTGWF      CONNECTED TO MODEL FREMONTGWF       PACKAGE CHD_0            ON UNIT   1015 AT TIME STEP      2, STRESS PERIOD     14

 HEAD WILL BE SAVED ON UNIT 1016 AT END OF TIME STEP    2, STRESS PERIOD   14

end timestep


start timestep kper="14" kstp="3" mode="normal"

 UBDSV1 SAVING     FLOW-JA-FACE ON UNIT   1015 AT TIME STEP      3, STRESS PERIOD     14
 UBDSV06 SAVING       DATA-SPDIS IN MODEL FREMONTGWF       PACKAGE NPF             CONNECTED TO MODEL FREMONTGWF       PACKAGE NPF              ON UNIT   1015 AT TIME STEP      3, STRESS PERIOD     14
 UBDSV06 SAVING         DATA-SAT IN MODEL FREMONTGWF       PACKAGE NPF             CONNECTED TO MODEL FREMONTGWF       PACKAGE NPF              ON UNIT   1015 AT TIME STEP      3, STRESS PERIOD     14
 UBDSV06 SAVING              CHD IN MODEL FREMONTGWF       PACKAGE FREMONTGWF      CONNECTED TO MODEL FREMONTGWF       PACKAGE CHD_0            ON UNIT   1015 AT TIME STEP      3, STRESS PERIOD     14

 HEAD WILL BE SAVED ON UNIT 1016 AT END OF TIME STEP    3, STRESS PERIOD   14

end timestep


start timestep kper="14" kstp="4" mode="normal"

 UBDSV1 SAVING     FLOW-JA-FACE ON UNIT   1015 AT TIME STEP      4, STRESS PERIOD     14
 UBDSV06 SAVING       DATA-SPDIS IN MODEL FREMONTGWF       PACKAGE NPF             CONNECTED TO MODEL FREMONTGWF       PACKAGE NPF              ON UNIT   1015 AT TIME STEP      4, STRESS PERIOD     14
 UBDSV06 SAVING         DATA-SAT IN MODEL FREMONTGWF       PACKAGE NPF             CONNECTED TO MODEL FREMONTGWF       PACKAGE NPF              ON UNIT   1015 AT TIME STEP      4, STRESS PERIOD     14
 UBDSV06 SAVING              CHD IN MODEL FREMONTGWF       PACKAGE FREMONTGWF      CONNECTED TO MODEL FREMONTGWF       PACKAGE CHD_0            ON UNIT   1015 AT TIME STEP      4, STRESS PERIOD     14

 HEAD WILL BE SAVED ON UNIT 1016 AT END OF TIME STEP    4, STRESS PERIOD   14


  VOLUME BUDGET FOR ENTIRE MODEL AT END OF TIME STEP    4, STRESS PERIOD  14
  ---------------------------------------------------------------------------------------------------

     CUMULATIVE VOLUME      L**3       RATES FOR THIS TIME STEP      L**3/T          PACKAGE NAME    
     ------------------                 ------------------------                     ----------------

           IN:                                      IN:
           ---                                      ---
                 CHD =        1532.5544                   CHD =           3.7494     CHD_0           

            TOTAL IN =        1532.5544              TOTAL IN =           3.7494

          OUT:                                     OUT:
          ----                                     ----
                 CHD =        1532.5544                   CHD =           3.7494     CHD_0           

           TOTAL OUT =        1532.5544             TOTAL OUT =           3.7494

            IN - OUT =       5.5077E-07              IN - OUT =       7.0672E-09

 PERCENT DISCREPANCY =          -0.00     PERCENT DISCREPANCY =           0.00




         TIME SUMMARY AT END OF TIME STEP    4 IN STRESS PERIOD   14
                    SECONDS     MINUTES      HOURS       DAYS        YEARS
                    -----------------------------------------------------------
   TIME STEP LENGTH 9.07317E+05  15122.      252.03      10.501     2.87511E-02
 STRESS PERIOD TIME 2.67840E+06  44640.      744.00      31.000     8.48734E-02
         TOTAL TIME 3.68928E+07 6.14880E+05  10248.      427.00      1.1691    


end timestep


start timestep kper="15" kstp="1" mode="normal"


 OUTPUT CONTROL FOR STRESS PERIOD 15 IS REPEATED USING SETTINGS FROM A PREVIOUS STRESS PERIOD.

 REUSING CHDS FROM LAST STRESS PERIOD
 UBDSV1 SAVING     FLOW-JA-FACE ON UNIT   1015 AT TIME STEP      1, STRESS PERIOD     15
 UBDSV06 SAVING       DATA-SPDIS IN MODEL FREMONTGWF       PACKAGE NPF             CONNECTED TO MODEL FREMONTGWF       PACKAGE NPF              ON UNIT   1015 AT TIME STEP      1, STRESS PERIOD     15
 UBDSV06 SAVING         DATA-SAT IN MODEL FREMONTGWF       PACKAGE NPF             CONNECTED TO MODEL FREMONTGWF       PACKAGE NPF              ON UNIT   1015 AT TIME STEP      1, STRESS PERIOD     15
 UBDSV06 SAVING              CHD IN MODEL FREMONTGWF       PACKAGE FREMONTGWF      CONNECTED TO MODEL FREMONTGWF       PACKAGE CHD_0            ON UNIT   1015 AT TIME STEP      1, STRESS PERIOD     15

 HEAD WILL BE SAVED ON UNIT 1016 AT END OF TIME STEP    1, STRESS PERIOD   15

end timestep


start timestep kper="15" kstp="2" mode="normal"

 UBDSV1 SAVING     FLOW-JA-FACE ON UNIT   1015 AT TIME STEP      2, STRESS PERIOD     15
 UBDSV06 SAVING       DATA-SPDIS IN MODEL FREMONTGWF       PACKAGE NPF             CONNECTED TO MODEL FREMONTGWF       PACKAGE NPF              ON UNIT   1015 AT TIME STEP      2, STRESS PERIOD     15
 UBDSV06 SAVING         DATA-SAT IN MODEL FREMONTGWF       PACKAGE NPF             CONNECTED TO MODEL FREMONTGWF       PACKAGE NPF              ON UNIT   1015 AT TIME STEP      2, STRESS PERIOD     15
 UBDSV06 SAVING              CHD IN MODEL FREMONTGWF       PACKAGE FREMONTGWF      CONNECTED TO MODEL FREMONTGWF       PACKAGE CHD_0            ON UNIT   1015 AT TIME STEP      2, STRESS PERIOD     15

 HEAD WILL BE SAVED ON UNIT 1016 AT END OF TIME STEP    2, STRESS PERIOD   15

end timestep


start timestep kper="15" kstp="3" mode="normal"

 UBDSV1 SAVING     FLOW-JA-FACE ON UNIT   1015 AT TIME STEP      3, STRESS PERIOD     15
 UBDSV06 SAVING       DATA-SPDIS IN MODEL FREMONTGWF       PACKAGE NPF             CONNECTED TO MODEL FREMONTGWF       PACKAGE NPF              ON UNIT   1015 AT TIME STEP      3, STRESS PERIOD     15
[...]
 UBDSV06 SAVING         DATA-SAT IN MODEL FREMONTGWF       PACKAGE NPF             CONNECTED TO MODEL FREMONTGWF       PACKAGE NPF              ON UNIT   1015 AT TIME STEP      1, STRESS PERIOD     26
 UBDSV06 SAVING              CHD IN MODEL FREMONTGWF       PACKAGE FREMONTGWF      CONNECTED TO MODEL FREMONTGWF       PACKAGE CHD_0            ON UNIT   1015 AT TIME STEP      1, STRESS PERIOD     26

 HEAD WILL BE SAVED ON UNIT 1016 AT END OF TIME STEP    1, STRESS PERIOD   26

end timestep


start timestep kper="26" kstp="2" mode="normal"

 UBDSV1 SAVING     FLOW-JA-FACE ON UNIT   1015 AT TIME STEP      2, STRESS PERIOD     26
 UBDSV06 SAVING       DATA-SPDIS IN MODEL FREMONTGWF       PACKAGE NPF             CONNECTED TO MODEL FREMONTGWF       PACKAGE NPF              ON UNIT   1015 AT TIME STEP      2, STRESS PERIOD     26
 UBDSV06 SAVING         DATA-SAT IN MODEL FREMONTGWF       PACKAGE NPF             CONNECTED TO MODEL FREMONTGWF       PACKAGE NPF              ON UNIT   1015 AT TIME STEP      2, STRESS PERIOD     26
 UBDSV06 SAVING              CHD IN MODEL FREMONTGWF       PACKAGE FREMONTGWF      CONNECTED TO MODEL FREMONTGWF       PACKAGE CHD_0            ON UNIT   1015 AT TIME STEP      2, STRESS PERIOD     26

 HEAD WILL BE SAVED ON UNIT 1016 AT END OF TIME STEP    2, STRESS PERIOD   26

end timestep


start timestep kper="26" kstp="3" mode="normal"

 UBDSV1 SAVING     FLOW-JA-FACE ON UNIT   1015 AT TIME STEP      3, STRESS PERIOD     26
 UBDSV06 SAVING       DATA-SPDIS IN MODEL FREMONTGWF       PACKAGE NPF             CONNECTED TO MODEL FREMONTGWF       PACKAGE NPF              ON UNIT   1015 AT TIME STEP      3, STRESS PERIOD     26
 UBDSV06 SAVING         DATA-SAT IN MODEL FREMONTGWF       PACKAGE NPF             CONNECTED TO MODEL FREMONTGWF       PACKAGE NPF              ON UNIT   1015 AT TIME STEP      3, STRESS PERIOD     26
 UBDSV06 SAVING              CHD IN MODEL FREMONTGWF       PACKAGE FREMONTGWF      CONNECTED TO MODEL FREMONTGWF       PACKAGE CHD_0            ON UNIT   1015 AT TIME STEP      3, STRESS PERIOD     26

 HEAD WILL BE SAVED ON UNIT 1016 AT END OF TIME STEP    3, STRESS PERIOD   26

end timestep


start timestep kper="26" kstp="4" mode="normal"

 UBDSV1 SAVING     FLOW-JA-FACE ON UNIT   1015 AT TIME STEP      4, STRESS PERIOD     26
 UBDSV06 SAVING       DATA-SPDIS IN MODEL FREMONTGWF       PACKAGE NPF             CONNECTED TO MODEL FREMONTGWF       PACKAGE NPF              ON UNIT   1015 AT TIME STEP      4, STRESS PERIOD     26
 UBDSV06 SAVING         DATA-SAT IN MODEL FREMONTGWF       PACKAGE NPF             CONNECTED TO MODEL FREMONTGWF       PACKAGE NPF              ON UNIT   1015 AT TIME STEP      4, STRESS PERIOD     26
 UBDSV06 SAVING              CHD IN MODEL FREMONTGWF       PACKAGE FREMONTGWF      CONNECTED TO MODEL FREMONTGWF       PACKAGE CHD_0            ON UNIT   1015 AT TIME STEP      4, STRESS PERIOD     26

 HEAD WILL BE SAVED ON UNIT 1016 AT END OF TIME STEP    4, STRESS PERIOD   26


  VOLUME BUDGET FOR ENTIRE MODEL AT END OF TIME STEP    4, STRESS PERIOD  26
  ---------------------------------------------------------------------------------------------------

     CUMULATIVE VOLUME      L**3       RATES FOR THIS TIME STEP      L**3/T          PACKAGE NAME    
     ------------------                 ------------------------                     ----------------

           IN:                                      IN:
           ---                                      ---
                 CHD =        2745.3327                   CHD =           3.3884     CHD_0           

            TOTAL IN =        2745.3327              TOTAL IN =           3.3884

          OUT:                                     OUT:
          ----                                     ----
                 CHD =        2745.3327                   CHD =           3.3884     CHD_0           

           TOTAL OUT =        2745.3327             TOTAL OUT =           3.3884

            IN - OUT =       2.3401E-07              IN - OUT =       2.0545E-09

 PERCENT DISCREPANCY =          -0.00     PERCENT DISCREPANCY =           0.00




         TIME SUMMARY AT END OF TIME STEP    4 IN STRESS PERIOD   26
                    SECONDS     MINUTES      HOURS       DAYS        YEARS
                    -----------------------------------------------------------
   TIME STEP LENGTH 9.07317E+05  15122.      252.03      10.501     2.87511E-02
 STRESS PERIOD TIME 2.67840E+06  44640.      744.00      31.000     8.48734E-02
         TOTAL TIME 6.84288E+07 1.14048E+06  19008.      792.00      2.1684    


end timestep


start timestep kper="27" kstp="1" mode="normal"


 OUTPUT CONTROL FOR STRESS PERIOD 27 IS REPEATED USING SETTINGS FROM A PREVIOUS STRESS PERIOD.

 REUSING CHDS FROM LAST STRESS PERIOD
 UBDSV1 SAVING     FLOW-JA-FACE ON UNIT   1015 AT TIME STEP      1, STRESS PERIOD     27
 UBDSV06 SAVING       DATA-SPDIS IN MODEL FREMONTGWF       PACKAGE NPF             CONNECTED TO MODEL FREMONTGWF       PACKAGE NPF              ON UNIT   1015 AT TIME STEP      1, STRESS PERIOD     27
 UBDSV06 SAVING         DATA-SAT IN MODEL FREMONTGWF       PACKAGE NPF             CONNECTED TO MODEL FREMONTGWF       PACKAGE NPF              ON UNIT   1015 AT TIME STEP      1, STRESS PERIOD     27
 UBDSV06 SAVING              CHD IN MODEL FREMONTGWF       PACKAGE FREMONTGWF      CONNECTED TO MODEL FREMONTGWF       PACKAGE CHD_0            ON UNIT   1015 AT TIME STEP      1, STRESS PERIOD     27

 HEAD WILL BE SAVED ON UNIT 1016 AT END OF TIME STEP    1, STRESS PERIOD   27

end timestep


start timestep kper="27" kstp="2" mode="normal"

 UBDSV1 SAVING     FLOW-JA-FACE ON UNIT   1015 AT TIME STEP      2, STRESS PERIOD     27
 UBDSV06 SAVING       DATA-SPDIS IN MODEL FREMONTGWF       PACKAGE NPF             CONNECTED TO MODEL FREMONTGWF       PACKAGE NPF              ON UNIT   1015 AT TIME STEP      2, STRESS PERIOD     27
 UBDSV06 SAVING         DATA-SAT IN MODEL FREMONTGWF       PACKAGE NPF             CONNECTED TO MODEL FREMONTGWF       PACKAGE NPF              ON UNIT   1015 AT TIME STEP      2, STRESS PERIOD     27
 UBDSV06 SAVING              CHD IN MODEL FREMONTGWF       PACKAGE FREMONTGWF      CONNECTED TO MODEL FREMONTGWF       PACKAGE CHD_0            ON UNIT   1015 AT TIME STEP      2, STRESS PERIOD     27

 HEAD WILL BE SAVED ON UNIT 1016 AT END OF TIME STEP    2, STRESS PERIOD   27

end timestep


start timestep kper="27" kstp="3" mode="normal"

 UBDSV1 SAVING     FLOW-JA-FACE ON UNIT   1015 AT TIME STEP      3, STRESS PERIOD     27
 UBDSV06 SAVING       DATA-SPDIS IN MODEL FREMONTGWF       PACKAGE NPF             CONNECTED TO MODEL FREMONTGWF       PACKAGE NPF              ON UNIT   1015 AT TIME STEP      3, STRESS PERIOD     27
 UBDSV06 SAVING         DATA-SAT IN MODEL FREMONTGWF       PACKAGE NPF             CONNECTED TO MODEL FREMONTGWF       PACKAGE NPF              ON UNIT   1015 AT TIME STEP      3, STRESS PERIOD     27
 UBDSV06 SAVING              CHD IN MODEL FREMONTGWF       PACKAGE FREMONTGWF      CONNECTED TO MODEL FREMONTGWF       PACKAGE CHD_0            ON UNIT   1015 AT TIME STEP      3, STRESS PERIOD     27

 HEAD WILL BE SAVED ON UNIT 1016 AT END OF TIME STEP    3, STRESS PERIOD   27

end timestep


start timestep kper="27" kstp="4" mode="normal"

 UBDSV1 SAVING     FLOW-JA-FACE ON UNIT   1015 AT TIME STEP      4, STRESS PERIOD     27
 UBDSV06 SAVING       DATA-SPDIS IN MODEL FREMONTGWF       PACKAGE NPF             CONNECTED TO MODEL FREMONTGWF       PACKAGE NPF              ON UNIT   1015 AT TIME STEP      4, STRESS PERIOD     27
 UBDSV06 SAVING         DATA-SAT IN MODEL FREMONTGWF       PACKAGE NPF             CONNECTED TO MODEL FREMONTGWF       PACKAGE NPF              ON UNIT   1015 AT TIME STEP      4, STRESS PERIOD     27
 UBDSV06 SAVING              CHD IN MODEL FREMONTGWF       PACKAGE FREMONTGWF      CONNECTED TO MODEL FREMONTGWF       PACKAGE CHD_0            ON UNIT   1015 AT TIME STEP      4, STRESS PERIOD     27

 HEAD WILL BE SAVED ON UNIT 1016 AT END OF TIME STEP    4, STRESS PERIOD   27


  VOLUME BUDGET FOR ENTIRE MODEL AT END OF TIME STEP    4, STRESS PERIOD  27
  ---------------------------------------------------------------------------------------------------

     CUMULATIVE VOLUME      L**3       RATES FOR THIS TIME STEP      L**3/T          PACKAGE NAME    
     ------------------                 ------------------------                     ----------------

           IN:                                      IN:
           ---                                      ---
                 CHD =        2843.5951                   CHD =           3.3884     CHD_0           

            TOTAL IN =        2843.5951              TOTAL IN =           3.3884

          OUT:                                     OUT:
          ----                                     ----
                 CHD =        2843.5951                   CHD =           3.3884     CHD_0           

           TOTAL OUT =        2843.5951             TOTAL OUT =           3.3884

            IN - OUT =       1.8085E-07              IN - OUT =       1.7500E-09

 PERCENT DISCREPANCY =          -0.00     PERCENT DISCREPANCY =           0.00




         TIME SUMMARY AT END OF TIME STEP    4 IN STRESS PERIOD   27
                    SECONDS     MINUTES      HOURS       DAYS        YEARS
                    -----------------------------------------------------------
   TIME STEP LENGTH 8.48780E+05  14146.      235.77      9.8238     2.68962E-02
 STRESS PERIOD TIME 2.50560E+06  41760.      696.00      29.000     7.93977E-02
         TOTAL TIME 7.09344E+07 1.18224E+06  19704.      821.00      2.2478    


end timestep


start timestep kper="28" kstp="1" mode="normal"


 OUTPUT CONTROL FOR STRESS PERIOD 28 IS REPEATED USING SETTINGS FROM A PREVIOUS STRESS PERIOD.

 REUSING CHDS FROM LAST STRESS PERIOD
 UBDSV1 SAVING     FLOW-JA-FACE ON UNIT   1015 AT TIME STEP      1, STRESS PERIOD     28
 UBDSV06 SAVING       DATA-SPDIS IN MODEL FREMONTGWF       PACKAGE NPF             CONNECTED TO MODEL FREMONTGWF       PACKAGE NPF              ON UNIT   1015 AT TIME STEP      1, STRESS PERIOD     28
 UBDSV06 SAVING         DATA-SAT IN MODEL FREMONTGWF       PACKAGE NPF             CONNECTED TO MODEL FREMONTGWF       PACKAGE NPF              ON UNIT   1015 AT TIME STEP      1, STRESS PERIOD     28
 UBDSV06 SAVING              CHD IN MODEL FREMONTGWF       PACKAGE FREMONTGWF      CONNECTED TO MODEL FREMONTGWF       PACKAGE CHD_0            ON UNIT   1015 AT TIME STEP      1, STRESS PERIOD     28

 HEAD WILL BE SAVED ON UNIT 1016 AT END OF TIME STEP    1, STRESS PERIOD   28

end timestep


start timestep kper="28" kstp="2" mode="normal"

 UBDSV1 SAVING     FLOW-JA-FACE ON UNIT   1015 AT TIME STEP      2, STRESS PERIOD     28
 UBDSV06 SAVING       DATA-SPDIS IN MODEL FREMONTGWF       PACKAGE NPF             CONNECTED TO MODEL FREMONTGWF       PACKAGE NPF              ON UNIT   1015 AT TIME STEP      2, STRESS PERIOD     28
 UBDSV06 SAVING         DATA-SAT IN MODEL FREMONTGWF       PACKAGE NPF             CONNECTED TO MODEL FREMONTGWF       PACKAGE NPF              ON UNIT   1015 AT TIME STEP      2, STRESS PERIOD     28
 UBDSV06 SAVING              CHD IN MODEL FREMONTGWF       PACKAGE FREMONTGWF      CONNECTED TO MODEL FREMONTGWF       PACKAGE CHD_0            ON UNIT   1015 AT TIME STEP      2, STRESS PERIOD     28

 HEAD WILL BE SAVED ON UNIT 1016 AT END OF TIME STEP    2, STRESS PERIOD   28

end timestep


start timestep kper="28" kstp="3" mode="normal"

 UBDSV1 SAVING     FLOW-JA-FACE ON UNIT   1015 AT TIME STEP      3, STRESS PERIOD     28
 UBDSV06 SAVING       DATA-SPDIS IN MODEL FREMONTGWF       PACKAGE NPF             CONNECTED TO MODEL FREMONTGWF       PACKAGE NPF              ON UNIT   1015 AT TIME STEP      3, STRESS PERIOD     28
 UBDSV06 SAVING         DATA-SAT IN MODEL FREMONTGWF       PACKAGE NPF             CONNECTED TO MODEL FREMONTGWF       PACKAGE NPF              ON UNIT   1015 AT TIME STEP      3, STRESS PERIOD     28
 UBDSV06 SAVING              CHD IN MODEL FREMONTGWF       PACKAGE FREMONTGWF      CONNECTED TO MODEL FREMONTGWF       PACKAGE CHD_0            ON UNIT   1015 AT TIME STEP      3, STRESS PERIOD     28

 HEAD WILL BE SAVED ON UNIT 1016 AT END OF TIME STEP    3, STRESS PERIOD   28

end timestep


start timestep kper="28" kstp="4" mode="normal"

 UBDSV1 SAVING     FLOW-JA-FACE ON UNIT   1015 AT TIME STEP      4, STRESS PERIOD     28
 UBDSV06 SAVING       DATA-SPDIS IN MODEL FREMONTGWF       PACKAGE NPF             CONNECTED TO MODEL FREMONTGWF       PACKAGE NPF              ON UNIT   1015 AT TIME STEP      4, STRESS PERIOD     28
 UBDSV06 SAVING         DATA-SAT IN MODEL FREMONTGWF       PACKAGE NPF             CONNECTED TO MODEL FREMONTGWF       PACKAGE NPF              ON UNIT   1015 AT TIME STEP      4, STRESS PERIOD     28
 UBDSV06 SAVING              CHD IN MODEL FREMONTGWF       PACKAGE FREMONTGWF      CONNECTED TO MODEL FREMONTGWF       PACKAGE CHD_0            ON UNIT   1015 AT TIME STEP      4, STRESS PERIOD     28

 HEAD WILL BE SAVED ON UNIT 1016 AT END OF TIME STEP    4, STRESS PERIOD   28


  VOLUME BUDGET FOR ENTIRE MODEL AT END OF TIME STEP    4, STRESS PERIOD  28
  ---------------------------------------------------------------------------------------------------

     CUMULATIVE VOLUME      L**3       RATES FOR THIS TIME STEP      L**3/T          PACKAGE NAME    
     ------------------                 ------------------------                     ----------------

           IN:                                      IN:
           ---                                      ---
                 CHD =        2948.6342                   CHD =           3.3884     CHD_0           

            TOTAL IN =        2948.6342              TOTAL IN =           3.3884

          OUT:                                     OUT:
          ----                                     ----
                 CHD =        2948.6342                   CHD =           3.3884     CHD_0           

           TOTAL OUT =        2948.6342             TOTAL OUT =           3.3884

            IN - OUT =       1.3102E-07              IN - OUT =       1.5517E-09

 PERCENT DISCREPANCY =          -0.00     PERCENT DISCREPANCY =           0.00




         TIME SUMMARY AT END OF TIME STEP    4 IN STRESS PERIOD   28
                    SECONDS     MINUTES      HOURS       DAYS        YEARS
                    -----------------------------------------------------------
   TIME STEP LENGTH 9.07317E+05  15122.      252.03      10.501     2.87511E-02
 STRESS PERIOD TIME 2.67840E+06  44640.      744.00      31.000     8.48734E-02
         TOTAL TIME 7.36128E+07 1.22688E+06  20448.      852.00      2.3326    


end timestep


start timestep kper="29" kstp="1" mode="normal"


 OUTPUT CONTROL FOR STRESS PERIOD 29 IS REPEATED USING SETTINGS FROM A PREVIOUS STRESS PERIOD.

 REUSING CHDS FROM LAST STRESS PERIOD
 UBDSV1 SAVING     FLOW-JA-FACE ON UNIT   1015 AT TIME STEP      1, STRESS PERIOD     29
 UBDSV06 SAVING       DATA-SPDIS IN MODEL FREMONTGWF       PACKAGE NPF             CONNECTED TO MODEL FREMONTGWF       PACKAGE NPF              ON UNIT   1015 AT TIME STEP      1, STRESS PERIOD     29
 UBDSV06 SAVING         DATA-SAT IN MODEL FREMONTGWF       PACKAGE NPF             CONNECTED TO MODEL FREMONTGWF       PACKAGE NPF              ON UNIT   1015 AT TIME STEP      1, STRESS PERIOD     29
 UBDSV06 SAVING              CHD IN MODEL FREMONTGWF       PACKAGE FREMONTGWF      CONNECTED TO MODEL FREMONTGWF       PACKAGE CHD_0            ON UNIT   1015 AT TIME STEP      1, STRESS PERIOD     29

 HEAD WILL BE SAVED ON UNIT 1016 AT END OF TIME STEP    1, STRESS PERIOD   29

end timestep


start timestep kper="29" kstp="2" mode="normal"

 UBDSV1 SAVING     FLOW-JA-FACE ON UNIT   1015 AT TIME STEP      2, STRESS PERIOD     29
 UBDSV06 SAVING       DATA-SPDIS IN MODEL FREMONTGWF       PACKAGE NPF             CONNECTED TO MODEL FREMONTGWF       PACKAGE NPF              ON UNIT   1015 AT TIME STEP      2, STRESS PERIOD     29
 UBDSV06 SAVING         DATA-SAT IN MODEL FREMONTGWF       PACKAGE NPF             CONNECTED TO MODEL FREMONTGWF       PACKAGE NPF              ON UNIT   1015 AT TIME STEP      2, STRESS PERIOD     29
 UBDSV06 SAVING              CHD IN MODEL FREMONTGWF       PACKAGE FREMONTGWF      CONNECTED TO MODEL FREMONTGWF       PACKAGE CHD_0            ON UNIT   1015 AT TIME STEP      2, STRESS PERIOD     29

 HEAD WILL BE SAVED ON UNIT 1016 AT END OF TIME STEP    2, STRESS PERIOD   29

end timestep


start timestep kper="29" kstp="3" mode="normal"

 UBDSV1 SAVING     FLOW-JA-FACE ON UNIT   1015 AT TIME STEP      3, STRESS PERIOD     29
 UBDSV06 SAVING       DATA-SPDIS IN MODEL FREMONTGWF       PACKAGE NPF             CONNECTED TO MODEL FREMONTGWF       PACKAGE NPF              ON UNIT   1015 AT TIME STEP      3, STRESS PERIOD     29
 UBDSV06 SAVING         DATA-SAT IN MODEL FREMONTGWF       PACKAGE NPF             CONNECTED TO MODEL FREMONTGWF       PACKAGE NPF              ON UNIT   1015 AT TIME STEP      3, STRESS PERIOD     29
 UBDSV06 SAVING              CHD IN MODEL FREMONTGWF       PACKAGE FREMONTGWF      CONNECTED TO MODEL FREMONTGWF       PACKAGE CHD_0            ON UNIT   1015 AT TIME STEP      3, STRESS PERIOD     29

 HEAD WILL BE SAVED ON UNIT 1016 AT END OF TIME STEP    3, STRESS PERIOD   29

end timestep


start timestep kper="29" kstp="4" mode="normal"

 UBDSV1 SAVING     FLOW-JA-FACE ON UNIT   1015 AT TIME STEP      4, STRESS PERIOD     29
 UBDSV06 SAVING       DATA-SPDIS IN MODEL FREMONTGWF       PACKAGE NPF             CONNECTED TO MODEL FREMONTGWF       PACKAGE NPF              ON UNIT   1015 AT TIME STEP      4, STRESS PERIOD     29
 UBDSV06 SAVING         DATA-SAT IN MODEL FREMONTGWF       PACKAGE NPF             CONNECTED TO MODEL FREMONTGWF       PACKAGE NPF              ON UNIT   1015 AT TIME STEP      4, STRESS PERIOD     29
 UBDSV06 SAVING              CHD IN MODEL FREMONTGWF       PACKAGE FREMONTGWF      CONNECTED TO MODEL FREMONTGWF       PACKAGE CHD_0            ON UNIT   1015 AT TIME STEP      4, STRESS PERIOD     29

 HEAD WILL BE SAVED ON UNIT 1016 AT END OF TIME STEP    4, STRESS PERIOD   29


  VOLUME BUDGET FOR ENTIRE MODEL AT END OF TIME STEP    4, STRESS PERIOD  29
  ---------------------------------------------------------------------------------------------------

     CUMULATIVE VOLUME      L**3       RATES FOR THIS TIME STEP      L**3/T          PACKAGE NAME    
     ------------------                 ------------------------                     ----------------

           IN:                                      IN:
           ---                                      ---
                 CHD =        3050.2850                   CHD =           3.3884     CHD_0           

            TOTAL IN =        3050.2850              TOTAL IN =           3.3884

          OUT:                                     OUT:
          ----                                     ----
                 CHD =        3050.2850                   CHD =           3.3884     CHD_0           

           TOTAL OUT =        3050.2850             TOTAL OUT =           3.3884

            IN - OUT =       8.7525E-08              IN - OUT =       1.4091E-09

 PERCENT DISCREPANCY =          -0.00     PERCENT DISCREPANCY =           0.00




         TIME SUMMARY AT END OF TIME STEP    4 IN STRESS PERIOD   29
                    SECONDS     MINUTES      HOURS       DAYS        YEARS
                    -----------------------------------------------------------
   TIME STEP LENGTH 8.78049E+05  14634.      243.90      10.163     2.78237E-02
 STRESS PERIOD TIME 2.59200E+06  43200.      720.00      30.000     8.21355E-02
         TOTAL TIME 7.62048E+07 1.27008E+06  21168.      882.00      2.4148    


end timestep

