                                   MODFLOW 6
                U.S. GEOLOGICAL SURVEY MODULAR HYDROLOGIC MODEL
                          GROUNDWATER FLOW MODEL (GWF)
                            VERSION 6.2.1 02/18/2021

  MODFLOW 6 compiled May  6 2021 00:38:39 with GFORTRAN compiler (ver. 10.2.0)

This software has been approved for release by the U.S. Geological 
Survey (USGS). Although the software has been subjected to rigorous 
review, the USGS reserves the right to update the software as needed 
pursuant to further analysis and review. No warranty, expressed or 
implied, is made by the USGS or the U.S. Government as to the 
functionality of the software and related material nor shall the 
fact of release constitute any such warranty. Furthermore, the 
software is released on condition that neither the USGS nor the U.S. 
Government shall be held liable for any damages resulting from its 
authorized or unauthorized use. Also refer to the USGS Water 
Resources Software User Rights Notice for complete use, copyright, 
and distribution information.


System command used to initiate simulation:
/usr/local/bin/mf6

MODFLOW was compiled using uniform precision.

Real Variables
  KIND: 8
  TINY (smallest non-zero value):    2.225074-308
  HUGE (largest value):    1.797693+308
  PRECISION: 15
  BIT SIZE: 64

Integer Variables
  KIND: 4
  HUGE (largest value): 2147483647
  BIT SIZE: 32

Long Integer Variables
  KIND: 8
  HUGE (largest value): 9223372036854775807
  BIT SIZE: 64

Logical Variables
  KIND: 4
  BIT SIZE: 32


 OPENED /Users/Theo/GRWMODELS/python/Pennink_model/cases/Series2/GWF/Series2Gwf.dis
 FILE TYPE:DIS6                   UNIT 1005   STATUS:OLD                 
 FORMAT:FORMATTED              ACCESS:SEQUENTIAL          
 ACTION:READ                


 OPENED /Users/Theo/GRWMODELS/python/Pennink_model/cases/Series2/GWF/Series2Gwf.chd
 FILE TYPE:CHD6                   UNIT 1006   STATUS:OLD                 
 FORMAT:FORMATTED              ACCESS:SEQUENTIAL          
 ACTION:READ                


 OPENED /Users/Theo/GRWMODELS/python/Pennink_model/cases/Series2/GWF/Series2Gwf.ic
 FILE TYPE:IC6                    UNIT 1007   STATUS:OLD                 
 FORMAT:FORMATTED              ACCESS:SEQUENTIAL          
 ACTION:READ                


 OPENED /Users/Theo/GRWMODELS/python/Pennink_model/cases/Series2/GWF/Series2Gwf.npf
 FILE TYPE:NPF6                   UNIT 1008   STATUS:OLD                 
 FORMAT:FORMATTED              ACCESS:SEQUENTIAL          
 ACTION:READ                


 OPENED /Users/Theo/GRWMODELS/python/Pennink_model/cases/Series2/GWF/Series2Gwf.oc
 FILE TYPE:OC6                    UNIT 1009   STATUS:OLD                 
 FORMAT:FORMATTED              ACCESS:SEQUENTIAL          
 ACTION:READ                

 NAMEFILE OPTIONS:
    FLOWS WILL BE SAVED TO BUDGET FILE SPECIFIED IN OUTPUT CONTROL

 DIS -- STRUCTURED GRID DISCRETIZATION PACKAGE, VERSION 2 : 3/27/2014 - INPUT READ FROM UNIT 1005


 # File generated by Flopy version 3.4.3 on 12/05/2023 at 20:56:26.
 PROCESSING DISCRETIZATION OPTIONS
    MODEL LENGTH UNIT IS CENTIMETERS
 END OF DISCRETIZATION OPTIONS
 PROCESSING DISCRETIZATION DIMENSIONS
    NLAY =      65
    NROW =       1
    NCOL =      65
 END OF DISCRETIZATION DIMENSIONS
 PROCESSING GRIDDATA

                     DELC =   1.800000    
 END PROCESSING GRIDDATA

 THE SPECIFIED IDOMAIN RESULTS IN A REDUCED NUMBER OF CELLS.
 NUMBER OF USER NODES: 4225
 NUMBER OF NODES IN SOLUTION: 3763



 NPF -- NODE PROPERTY FLOW PACKAGE, VERSION 1, 3/30/2015 INPUT READ FROM UNIT 1008


 # File generated by Flopy version 3.4.3 on 12/05/2023 at 20:56:26.
 PROCESSING NPF OPTIONS
    CELL-BY-CELL FLOW INFORMATION WILL BE SAVED TO BINARY FILE WHENEVER ICBCFL IS NOT ZERO.
    SPECIFIC DISCHARGE WILL BE CALCULATED AT CELL CENTERS AND WRITTEN TO DATA-SPDIS IN BUDGET FILE WHEN REQUESTED.
    SATURATION WILL BE WRITTEN TO DATA-SAT IN BUDGET FILE WHEN REQUESTED.
 END OF NPF OPTIONS

 CHD   -- CHD PACKAGE, VERSION 8, 2/22/2014 INPUT READ FROM UNIT 1006
 # File generated by Flopy version 3.4.3 on 12/05/2023 at 20:56:26.

 PROCESSING CHD OPTIONS
    FLOWS WILL BE SAVED TO BUDGET FILE SPECIFIED IN OUTPUT CONTROL
 END OF CHD OPTIONS

 PROCESSING CHD DIMENSIONS
    MAXBOUND =      24
 END OF CHD DIMENSIONS

 IC -- INITIAL CONDITIONS PACKAGE, VERSION 8, 3/28/2015 INPUT READ FROM UNIT 1007
 # File generated by Flopy version 3.4.3 on 12/05/2023 at 20:56:26.
 PROCESSING GRIDDATA
 END PROCESSING GRIDDATA
 PROCESSING GRIDDATA

                ICELLTYPE = 0
 END PROCESSING GRIDDATA
    BINARY GRID INFORMATION WILL BE WRITTEN TO:
      UNIT NUMBER: 1021
      FILE NAME: /Users/Theo/GRWMODELS/python/Pennink_model/cases/Series2/GWF/Series2Gwf.dis.grb

 OPENED /Users/Theo/GRWMODELS/python/Pennink_model/cases/Series2/GWF/Series2Gwf.dis.grb
 FILE TYPE:DATA(BINARY)   UNIT 1021   STATUS:REPLACE             
 FORMAT:UNFORMATTED            ACCESS:STREAM              
 ACTION:READWRITE           

      THE LAST TIME STEP WILL BE PRINTED
      THE LAST TIME STEP WILL BE PRINTED
 # File generated by Flopy version 3.4.3 on 12/05/2023 at 20:56:26.

 PROCESSING OC OPTIONS

    BUDGET INFORMATION WILL BE WRITTEN TO:
      UNIT NUMBER: 1022
      FILE NAME: /Users/Theo/GRWMODELS/python/Pennink_model/cases/Series2/SIM/Series2Gwf.cbc

 OPENED /Users/Theo/GRWMODELS/python/Pennink_model/cases/Series2/SIM/Series2Gwf.cbc
 FILE TYPE:DATA(BINARY)   UNIT 1022   STATUS:REPLACE             
 FORMAT:UNFORMATTED            ACCESS:STREAM              
 ACTION:READWRITE           

    HEAD INFORMATION WILL BE WRITTEN TO:
      UNIT NUMBER: 1023
      FILE NAME: /Users/Theo/GRWMODELS/python/Pennink_model/cases/Series2/SIM/Series2Gwf.hds

 OPENED /Users/Theo/GRWMODELS/python/Pennink_model/cases/Series2/SIM/Series2Gwf.hds
 FILE TYPE:DATA(BINARY)   UNIT 1023   STATUS:REPLACE             
 FORMAT:UNFORMATTED            ACCESS:STREAM              
 ACTION:READWRITE           

 END OF OC OPTIONS

start timestep kper="1" kstp="1" mode="normal"


 BEGIN READING OUTPUT CONTROL FOR STRESS PERIOD 1
      ALL TIME STEPS WILL BE SAVED
      ALL TIME STEPS WILL BE SAVED

 END READING OUTPUT CONTROL FOR STRESS PERIOD 1
 UBDSV1 SAVING     FLOW-JA-FACE ON UNIT   1022 AT TIME STEP      1, STRESS PERIOD      1
 UBDSV06 SAVING       DATA-SPDIS IN MODEL SERIES2GWF       PACKAGE NPF             CONNECTED TO MODEL SERIES2GWF       PACKAGE NPF              ON UNIT   1022 AT TIME STEP      1, STRESS PERIOD      1
 UBDSV06 SAVING         DATA-SAT IN MODEL SERIES2GWF       PACKAGE NPF             CONNECTED TO MODEL SERIES2GWF       PACKAGE NPF              ON UNIT   1022 AT TIME STEP      1, STRESS PERIOD      1
 UBDSV06 SAVING              CHD IN MODEL SERIES2GWF       PACKAGE SERIES2GWF      CONNECTED TO MODEL SERIES2GWF       PACKAGE CHD_0            ON UNIT   1022 AT TIME STEP      1, STRESS PERIOD      1

 HEAD WILL BE SAVED ON UNIT 1023 AT END OF TIME STEP    1, STRESS PERIOD    1


  VOLUME BUDGET FOR ENTIRE MODEL AT END OF TIME STEP    1, STRESS PERIOD   1
  ---------------------------------------------------------------------------------------------------

     CUMULATIVE VOLUME      L**3       RATES FOR THIS TIME STEP      L**3/T          PACKAGE NAME    
     ------------------                 ------------------------                     ----------------

           IN:                                      IN:
           ---                                      ---
                 CHD =          60.6497                   CHD =          12.1299     CHD_0           

            TOTAL IN =          60.6497              TOTAL IN =          12.1299

          OUT:                                     OUT:
          ----                                     ----
                 CHD =          82.0015                   CHD =          16.4003     CHD_0           

           TOTAL OUT =          82.0015             TOTAL OUT =          16.4003

            IN - OUT =          21.3518              IN - OUT =           4.2704

 PERCENT DISCREPANCY =         -29.94     PERCENT DISCREPANCY =         -29.94




         TIME SUMMARY AT END OF TIME STEP    1 IN STRESS PERIOD    1
                    SECONDS     MINUTES      HOURS       DAYS        YEARS
                    -----------------------------------------------------------
   TIME STEP LENGTH  300.00      5.0000     8.33333E-02 3.47222E-03 9.50643E-06
 STRESS PERIOD TIME  300.00      5.0000     8.33333E-02 3.47222E-03 9.50643E-06
         TOTAL TIME  300.00      5.0000     8.33333E-02 3.47222E-03 9.50643E-06


end timestep


start timestep kper="2" kstp="1" mode="normal"


 END OF FILE DETECTED IN OUTPUT CONTROL.
 CURRENT OUTPUT CONTROL SETTINGS WILL BE 
 REPEATED UNTIL THE END OF THE SIMULATION.

 OUTPUT CONTROL FOR STRESS PERIOD 2 IS REPEATED USING SETTINGS FROM A PREVIOUS STRESS PERIOD.

 REUSING CHDS FROM LAST STRESS PERIOD
 UBDSV1 SAVING     FLOW-JA-FACE ON UNIT   1022 AT TIME STEP      1, STRESS PERIOD      2
 UBDSV06 SAVING       DATA-SPDIS IN MODEL SERIES2GWF       PACKAGE NPF             CONNECTED TO MODEL SERIES2GWF       PACKAGE NPF              ON UNIT   1022 AT TIME STEP      1, STRESS PERIOD      2
 UBDSV06 SAVING         DATA-SAT IN MODEL SERIES2GWF       PACKAGE NPF             CONNECTED TO MODEL SERIES2GWF       PACKAGE NPF              ON UNIT   1022 AT TIME STEP      1, STRESS PERIOD      2
 UBDSV06 SAVING              CHD IN MODEL SERIES2GWF       PACKAGE SERIES2GWF      CONNECTED TO MODEL SERIES2GWF       PACKAGE CHD_0            ON UNIT   1022 AT TIME STEP      1, STRESS PERIOD      2

 HEAD WILL BE SAVED ON UNIT 1023 AT END OF TIME STEP    1, STRESS PERIOD    2


  VOLUME BUDGET FOR ENTIRE MODEL AT END OF TIME STEP    1, STRESS PERIOD   2
  ---------------------------------------------------------------------------------------------------

     CUMULATIVE VOLUME      L**3       RATES FOR THIS TIME STEP      L**3/T          PACKAGE NAME    
     ------------------                 ------------------------                     ----------------

           IN:                                      IN:
           ---                                      ---
                 CHD =         121.6521                   CHD =          12.2005     CHD_0           

            TOTAL IN =         121.6521              TOTAL IN =          12.2005

          OUT:                                     OUT:
          ----                                     ----
                 CHD =         163.8206                   CHD =          16.3638     CHD_0           

           TOTAL OUT =         163.8206             TOTAL OUT =          16.3638

            IN - OUT =          42.1685              IN - OUT =           4.1633

 PERCENT DISCREPANCY =         -29.54     PERCENT DISCREPANCY =         -29.15




         TIME SUMMARY AT END OF TIME STEP    1 IN STRESS PERIOD    2
                    SECONDS     MINUTES      HOURS       DAYS        YEARS
                    -----------------------------------------------------------
   TIME STEP LENGTH  300.00      5.0000     8.33333E-02 3.47222E-03 9.50643E-06
 STRESS PERIOD TIME  300.00      5.0000     8.33333E-02 3.47222E-03 9.50643E-06
         TOTAL TIME  600.00      10.000     0.16667     6.94444E-03 1.90129E-05


end timestep


start timestep kper="3" kstp="1" mode="normal"


 OUTPUT CONTROL FOR STRESS PERIOD 3 IS REPEATED USING SETTINGS FROM A PREVIOUS STRESS PERIOD.

 REUSING CHDS FROM LAST STRESS PERIOD
 UBDSV1 SAVING     FLOW-JA-FACE ON UNIT   1022 AT TIME STEP      1, STRESS PERIOD      3
 UBDSV06 SAVING       DATA-SPDIS IN MODEL SERIES2GWF       PACKAGE NPF             CONNECTED TO MODEL SERIES2GWF       PACKAGE NPF              ON UNIT   1022 AT TIME STEP      1, STRESS PERIOD      3
 UBDSV06 SAVING         DATA-SAT IN MODEL SERIES2GWF       PACKAGE NPF             CONNECTED TO MODEL SERIES2GWF       PACKAGE NPF              ON UNIT   1022 AT TIME STEP      1, STRESS PERIOD      3
 UBDSV06 SAVING              CHD IN MODEL SERIES2GWF       PACKAGE SERIES2GWF      CONNECTED TO MODEL SERIES2GWF       PACKAGE CHD_0            ON UNIT   1022 AT TIME STEP      1, STRESS PERIOD      3

 HEAD WILL BE SAVED ON UNIT 1023 AT END OF TIME STEP    1, STRESS PERIOD    3


  VOLUME BUDGET FOR ENTIRE MODEL AT END OF TIME STEP    1, STRESS PERIOD   3
  ---------------------------------------------------------------------------------------------------

     CUMULATIVE VOLUME      L**3       RATES FOR THIS TIME STEP      L**3/T          PACKAGE NAME    
     ------------------                 ------------------------                     ----------------

           IN:                                      IN:
           ---                                      ---
                 CHD =         184.0584                   CHD =          12.4812     CHD_0           

            TOTAL IN =         184.0584              TOTAL IN =          12.4812

          OUT:                                     OUT:
          ----                                     ----
                 CHD =         244.8023                   CHD =          16.1963     CHD_0           

           TOTAL OUT =         244.8023             TOTAL OUT =          16.1963

            IN - OUT =          60.7439              IN - OUT =           3.7151

 PERCENT DISCREPANCY =         -28.33     PERCENT DISCREPANCY =         -25.91




         TIME SUMMARY AT END OF TIME STEP    1 IN STRESS PERIOD    3
                    SECONDS     MINUTES      HOURS       DAYS        YEARS
                    -----------------------------------------------------------
   TIME STEP LENGTH  300.00      5.0000     8.33333E-02 3.47222E-03 9.50643E-06
 STRESS PERIOD TIME  300.00      5.0000     8.33333E-02 3.47222E-03 9.50643E-06
         TOTAL TIME  900.00      15.000     0.25000     1.04167E-02 2.85193E-05


end timestep


start timestep kper="4" kstp="1" mode="normal"


 OUTPUT CONTROL FOR STRESS PERIOD 4 IS REPEATED USING SETTINGS FROM A PREVIOUS STRESS PERIOD.

 REUSING CHDS FROM LAST STRESS PERIOD
 UBDSV1 SAVING     FLOW-JA-FACE ON UNIT   1022 AT TIME STEP      1, STRESS PERIOD      4
 UBDSV06 SAVING       DATA-SPDIS IN MODEL SERIES2GWF       PACKAGE NPF             CONNECTED TO MODEL SERIES2GWF       PACKAGE NPF              ON UNIT   1022 AT TIME STEP      1, STRESS PERIOD      4
 UBDSV06 SAVING         DATA-SAT IN MODEL SERIES2GWF       PACKAGE NPF             CONNECTED TO MODEL SERIES2GWF       PACKAGE NPF              ON UNIT   1022 AT TIME STEP      1, STRESS PERIOD      4
 UBDSV06 SAVING              CHD IN MODEL SERIES2GWF       PACKAGE SERIES2GWF      CONNECTED TO MODEL SERIES2GWF       PACKAGE CHD_0            ON UNIT   1022 AT TIME STEP      1, STRESS PERIOD      4

 HEAD WILL BE SAVED ON UNIT 1023 AT END OF TIME STEP    1, STRESS PERIOD    4


  VOLUME BUDGET FOR ENTIRE MODEL AT END OF TIME STEP    1, STRESS PERIOD   4
  ---------------------------------------------------------------------------------------------------

     CUMULATIVE VOLUME      L**3       RATES FOR THIS TIME STEP      L**3/T          PACKAGE NAME    
     ------------------                 ------------------------                     ----------------

           IN:                                      IN:
           ---                                      ---
                 CHD =         246.5564                   CHD =          12.4996     CHD_0           

            TOTAL IN =         246.5564              TOTAL IN =          12.4996

          OUT:                                     OUT:
          ----                                     ----
                 CHD =         325.6313                   CHD =          16.1658     CHD_0           

           TOTAL OUT =         325.6313             TOTAL OUT =          16.1658

            IN - OUT =          79.0749              IN - OUT =           3.6662

 PERCENT DISCREPANCY =         -27.64     PERCENT DISCREPANCY =         -25.58




         TIME SUMMARY AT END OF TIME STEP    1 IN STRESS PERIOD    4
                    SECONDS     MINUTES      HOURS       DAYS        YEARS
                    -----------------------------------------------------------
   TIME STEP LENGTH  300.00      5.0000     8.33333E-02 3.47222E-03 9.50643E-06
 STRESS PERIOD TIME  300.00      5.0000     8.33333E-02 3.47222E-03 9.50643E-06
         TOTAL TIME  1200.0      20.000     0.33333     1.38889E-02 3.80257E-05


end timestep


start timestep kper="5" kstp="1" mode="normal"


 OUTPUT CONTROL FOR STRESS PERIOD 5 IS REPEATED USING SETTINGS FROM A PREVIOUS STRESS PERIOD.

 REUSING CHDS FROM LAST STRESS PERIOD
 UBDSV1 SAVING     FLOW-JA-FACE ON UNIT   1022 AT TIME STEP      1, STRESS PERIOD      5
 UBDSV06 SAVING       DATA-SPDIS IN MODEL SERIES2GWF       PACKAGE NPF             CONNECTED TO MODEL SERIES2GWF       PACKAGE NPF              ON UNIT   1022 AT TIME STEP      1, STRESS PERIOD      5
 UBDSV06 SAVING         DATA-SAT IN MODEL SERIES2GWF       PACKAGE NPF             CONNECTED TO MODEL SERIES2GWF       PACKAGE NPF              ON UNIT   1022 AT TIME STEP      1, STRESS PERIOD      5
 UBDSV06 SAVING              CHD IN MODEL SERIES2GWF       PACKAGE SERIES2GWF      CONNECTED TO MODEL SERIES2GWF       PACKAGE CHD_0            ON UNIT   1022 AT TIME STEP      1, STRESS PERIOD      5

 HEAD WILL BE SAVED ON UNIT 1023 AT END OF TIME STEP    1, STRESS PERIOD    5


  VOLUME BUDGET FOR ENTIRE MODEL AT END OF TIME STEP    1, STRESS PERIOD   5
  ---------------------------------------------------------------------------------------------------

     CUMULATIVE VOLUME      L**3       RATES FOR THIS TIME STEP      L**3/T          PACKAGE NAME    
     ------------------                 ------------------------                     ----------------

           IN:                                      IN:
           ---                                      ---
                 CHD =         315.2097                   CHD =          13.7307     CHD_0           

            TOTAL IN =         315.2097              TOTAL IN =          13.7307

          OUT:                                     OUT:
          ----                                     ----
                 CHD =         396.1323                   CHD =          14.1002     CHD_0           

           TOTAL OUT =         396.1323             TOTAL OUT =          14.1002

            IN - OUT =          80.9226              IN - OUT =           0.3695

 PERCENT DISCREPANCY =         -22.75     PERCENT DISCREPANCY =          -2.66




         TIME SUMMARY AT END OF TIME STEP    1 IN STRESS PERIOD    5
                    SECONDS     MINUTES      HOURS       DAYS        YEARS
                    -----------------------------------------------------------
   TIME STEP LENGTH  300.00      5.0000     8.33333E-02 3.47222E-03 9.50643E-06
 STRESS PERIOD TIME  300.00      5.0000     8.33333E-02 3.47222E-03 9.50643E-06
         TOTAL TIME  1500.0      25.000     0.41667     1.73611E-02 4.75321E-05


end timestep


start timestep kper="6" kstp="1" mode="normal"


 OUTPUT CONTROL FOR STRESS PERIOD 6 IS REPEATED USING SETTINGS FROM A PREVIOUS STRESS PERIOD.

 REUSING CHDS FROM LAST STRESS PERIOD
 UBDSV1 SAVING     FLOW-JA-FACE ON UNIT   1022 AT TIME STEP      1, STRESS PERIOD      6
 UBDSV06 SAVING       DATA-SPDIS IN MODEL SERIES2GWF       PACKAGE NPF             CONNECTED TO MODEL SERIES2GWF       PACKAGE NPF              ON UNIT   1022 AT TIME STEP      1, STRESS PERIOD      6
 UBDSV06 SAVING         DATA-SAT IN MODEL SERIES2GWF       PACKAGE NPF             CONNECTED TO MODEL SERIES2GWF       PACKAGE NPF              ON UNIT   1022 AT TIME STEP      1, STRESS PERIOD      6
 UBDSV06 SAVING              CHD IN MODEL SERIES2GWF       PACKAGE SERIES2GWF      CONNECTED TO MODEL SERIES2GWF       PACKAGE CHD_0            ON UNIT   1022 AT TIME STEP      1, STRESS PERIOD      6

 HEAD WILL BE SAVED ON UNIT 1023 AT END OF TIME STEP    1, STRESS PERIOD    6


  VOLUME BUDGET FOR ENTIRE MODEL AT END OF TIME STEP    1, STRESS PERIOD   6
  ---------------------------------------------------------------------------------------------------

     CUMULATIVE VOLUME      L**3       RATES FOR THIS TIME STEP      L**3/T          PACKAGE NAME    
     ------------------                 ------------------------                     ----------------

           IN:                                      IN:
           ---                                      ---
                 CHD =         384.3731                   CHD =          13.8327     CHD_0           

            TOTAL IN =         384.3731              TOTAL IN =          13.8327

          OUT:                                     OUT:
          ----                                     ----
                 CHD =         466.7690                   CHD =          14.1273     CHD_0           

           TOTAL OUT =         466.7690             TOTAL OUT =          14.1273

            IN - OUT =          82.3959              IN - OUT =           0.2947

 PERCENT DISCREPANCY =         -19.36     PERCENT DISCREPANCY =          -2.11




         TIME SUMMARY AT END OF TIME STEP    1 IN STRESS PERIOD    6
                    SECONDS     MINUTES      HOURS       DAYS        YEARS
                    -----------------------------------------------------------
   TIME STEP LENGTH  300.00      5.0000     8.33333E-02 3.47222E-03 9.50643E-06
 STRESS PERIOD TIME  300.00      5.0000     8.33333E-02 3.47222E-03 9.50643E-06
         TOTAL TIME  1800.0      30.000     0.50000     2.08333E-02 5.70386E-05


end timestep


start timestep kper="7" kstp="1" mode="normal"


 OUTPUT CONTROL FOR STRESS PERIOD 7 IS REPEATED USING SETTINGS FROM A PREVIOUS STRESS PERIOD.

 REUSING CHDS FROM LAST STRESS PERIOD
 UBDSV1 SAVING     FLOW-JA-FACE ON UNIT   1022 AT TIME STEP      1, STRESS PERIOD      7
 UBDSV06 SAVING       DATA-SPDIS IN MODEL SERIES2GWF       PACKAGE NPF             CONNECTED TO MODEL SERIES2GWF       PACKAGE NPF              ON UNIT   1022 AT TIME STEP      1, STRESS PERIOD      7
 UBDSV06 SAVING         DATA-SAT IN MODEL SERIES2GWF       PACKAGE NPF             CONNECTED TO MODEL SERIES2GWF       PACKAGE NPF              ON UNIT   1022 AT TIME STEP      1, STRESS PERIOD      7
 UBDSV06 SAVING              CHD IN MODEL SERIES2GWF       PACKAGE SERIES2GWF      CONNECTED TO MODEL SERIES2GWF       PACKAGE CHD_0            ON UNIT   1022 AT TIME STEP      1, STRESS PERIOD      7

 HEAD WILL BE SAVED ON UNIT 1023 AT END OF TIME STEP    1, STRESS PERIOD    7


  VOLUME BUDGET FOR ENTIRE MODEL AT END OF TIME STEP    1, STRESS PERIOD   7
  ---------------------------------------------------------------------------------------------------

     CUMULATIVE VOLUME      L**3       RATES FOR THIS TIME STEP      L**3/T          PACKAGE NAME    
     ------------------                 ------------------------                     ----------------

           IN:                                      IN:
           ---                                      ---
                 CHD =         453.5652                   CHD =          13.8384     CHD_0           

            TOTAL IN =         453.5652              TOTAL IN =          13.8384

          OUT:                                     OUT:
          ----                                     ----
                 CHD =         537.4813                   CHD =          14.1425     CHD_0           

           TOTAL OUT =         537.4813             TOTAL OUT =          14.1425

            IN - OUT =          83.9161              IN - OUT =           0.3040

 PERCENT DISCREPANCY =         -16.93     PERCENT DISCREPANCY =          -2.17




         TIME SUMMARY AT END OF TIME STEP    1 IN STRESS PERIOD    7
                    SECONDS     MINUTES      HOURS       DAYS        YEARS
                    -----------------------------------------------------------
   TIME STEP LENGTH  300.00      5.0000     8.33333E-02 3.47222E-03 9.50643E-06
 STRESS PERIOD TIME  300.00      5.0000     8.33333E-02 3.47222E-03 9.50643E-06
         TOTAL TIME  2100.0      35.000     0.58333     2.43056E-02 6.65450E-05


end timestep


start timestep kper="8" kstp="1" mode="normal"


 OUTPUT CONTROL FOR STRESS PERIOD 8 IS REPEATED USING SETTINGS FROM A PREVIOUS STRESS PERIOD.

 REUSING CHDS FROM LAST STRESS PERIOD
 UBDSV1 SAVING     FLOW-JA-FACE ON UNIT   1022 AT TIME STEP      1, STRESS PERIOD      8
 UBDSV06 SAVING       DATA-SPDIS IN MODEL SERIES2GWF       PACKAGE NPF             CONNECTED TO MODEL SERIES2GWF       PACKAGE NPF              ON UNIT   1022 AT TIME STEP      1, STRESS PERIOD      8
 UBDSV06 SAVING         DATA-SAT IN MODEL SERIES2GWF       PACKAGE NPF             CONNECTED TO MODEL SERIES2GWF       PACKAGE NPF              ON UNIT   1022 AT TIME STEP      1, STRESS PERIOD      8
 UBDSV06 SAVING              CHD IN MODEL SERIES2GWF       PACKAGE SERIES2GWF      CONNECTED TO MODEL SERIES2GWF       PACKAGE CHD_0            ON UNIT   1022 AT TIME STEP      1, STRESS PERIOD      8

 HEAD WILL BE SAVED ON UNIT 1023 AT END OF TIME STEP    1, STRESS PERIOD    8


  VOLUME BUDGET FOR ENTIRE MODEL AT END OF TIME STEP    1, STRESS PERIOD   8
  ---------------------------------------------------------------------------------------------------

     CUMULATIVE VOLUME      L**3       RATES FOR THIS TIME STEP      L**3/T          PACKAGE NAME    
     ------------------                 ------------------------                     ----------------

           IN:                                      IN:
           ---                                      ---
                 CHD =         522.7998                   CHD =          13.8469     CHD_0           

            TOTAL IN =         522.7998              TOTAL IN =          13.8469

          OUT:                                     OUT:
          ----                                     ----
                 CHD =         608.2564                   CHD =          14.1550     CHD_0           

           TOTAL OUT =         608.2564             TOTAL OUT =          14.1550

            IN - OUT =          85.4565              IN - OUT =           0.3081

 PERCENT DISCREPANCY =         -15.11     PERCENT DISCREPANCY =          -2.20




         TIME SUMMARY AT END OF TIME STEP    1 IN STRESS PERIOD    8
                    SECONDS     MINUTES      HOURS       DAYS        YEARS
                    -----------------------------------------------------------
   TIME STEP LENGTH  300.00      5.0000     8.33333E-02 3.47222E-03 9.50643E-06
 STRESS PERIOD TIME  300.00      5.0000     8.33333E-02 3.47222E-03 9.50643E-06
         TOTAL TIME  2400.0      40.000     0.66667     2.77778E-02 7.60514E-05


end timestep


start timestep kper="9" kstp="1" mode="normal"


 OUTPUT CONTROL FOR STRESS PERIOD 9 IS REPEATED USING SETTINGS FROM A PREVIOUS STRESS PERIOD.

 REUSING CHDS FROM LAST STRESS PERIOD
 UBDSV1 SAVING     FLOW-JA-FACE ON UNIT   1022 AT TIME STEP      1, STRESS PERIOD      9
 UBDSV06 SAVING       DATA-SPDIS IN MODEL SERIES2GWF       PACKAGE NPF             CONNECTED TO MODEL SERIES2GWF       PACKAGE NPF              ON UNIT   1022 AT TIME STEP      1, STRESS PERIOD      9
 UBDSV06 SAVING         DATA-SAT IN MODEL SERIES2GWF       PACKAGE NPF             CONNECTED TO MODEL SERIES2GWF       PACKAGE NPF              ON UNIT   1022 AT TIME STEP      1, STRESS PERIOD      9
 UBDSV06 SAVING              CHD IN MODEL SERIES2GWF       PACKAGE SERIES2GWF      CONNECTED TO MODEL SERIES2GWF       PACKAGE CHD_0            ON UNIT   1022 AT TIME STEP      1, STRESS PERIOD      9

 HEAD WILL BE SAVED ON UNIT 1023 AT END OF TIME STEP    1, STRESS PERIOD    9


  VOLUME BUDGET FOR ENTIRE MODEL AT END OF TIME STEP    1, STRESS PERIOD   9
  ---------------------------------------------------------------------------------------------------

     CUMULATIVE VOLUME      L**3       RATES FOR THIS TIME STEP      L**3/T          PACKAGE NAME    
     ------------------                 ------------------------                     ----------------

           IN:                                      IN:
           ---                                      ---
                 CHD =         592.1330                   CHD =          13.8666     CHD_0           

            TOTAL IN =         592.1330              TOTAL IN =          13.8666

          OUT:                                     OUT:
          ----                                     ----
                 CHD =         678.9211                   CHD =          14.1329     CHD_0           

           TOTAL OUT =         678.9211             TOTAL OUT =          14.1329

            IN - OUT =          86.7881              IN - OUT =           0.2663

 PERCENT DISCREPANCY =         -13.66     PERCENT DISCREPANCY =          -1.90




         TIME SUMMARY AT END OF TIME STEP    1 IN STRESS PERIOD    9
                    SECONDS     MINUTES      HOURS       DAYS        YEARS
                    -----------------------------------------------------------
   TIME STEP LENGTH  300.00      5.0000     8.33333E-02 3.47222E-03 9.50643E-06
 STRESS PERIOD TIME  300.00      5.0000     8.33333E-02 3.47222E-03 9.50643E-06
         TOTAL TIME  2700.0      45.000     0.75000     3.12500E-02 8.55578E-05


end timestep


start timestep kper="10" kstp="1" mode="normal"


 OUTPUT CONTROL FOR STRESS PERIOD 10 IS REPEATED USING SETTINGS FROM A PREVIOUS STRESS PERIOD.

 REUSING CHDS FROM LAST STRESS PERIOD
 UBDSV1 SAVING     FLOW-JA-FACE ON UNIT   1022 AT TIME STEP      1, STRESS PERIOD     10
 UBDSV06 SAVING       DATA-SPDIS IN MODEL SERIES2GWF       PACKAGE NPF             CONNECTED TO MODEL SERIES2GWF       PACKAGE NPF              ON UNIT   1022 AT TIME STEP      1, STRESS PERIOD     10
 UBDSV06 SAVING         DATA-SAT IN MODEL SERIES2GWF       PACKAGE NPF             CONNECTED TO MODEL SERIES2GWF       PACKAGE NPF              ON UNIT   1022 AT TIME STEP      1, STRESS PERIOD     10
 UBDSV06 SAVING              CHD IN MODEL SERIES2GWF       PACKAGE SERIES2GWF      CONNECTED TO MODEL SERIES2GWF       PACKAGE CHD_0            ON UNIT   1022 AT TIME STEP      1, STRESS PERIOD     10

 HEAD WILL BE SAVED ON UNIT 1023 AT END OF TIME STEP    1, STRESS PERIOD   10


  VOLUME BUDGET FOR ENTIRE MODEL AT END OF TIME STEP    1, STRESS PERIOD  10
  ---------------------------------------------------------------------------------------------------

     CUMULATIVE VOLUME      L**3       RATES FOR THIS TIME STEP      L**3/T          PACKAGE NAME    
     ------------------                 ------------------------                     ----------------

           IN:                                      IN:
           ---                                      ---
                 CHD =         661.5389                   CHD =          13.8812     CHD_0           

            TOTAL IN =         661.5389              TOTAL IN =          13.8812

          OUT:                                     OUT:
          ----                                     ----
                 CHD =         749.4729                   CHD =          14.1103     CHD_0           

           TOTAL OUT =         749.4729             TOTAL OUT =          14.1103

            IN - OUT =          87.9339              IN - OUT =           0.2292

 PERCENT DISCREPANCY =         -12.46     PERCENT DISCREPANCY =          -1.64




         TIME SUMMARY AT END OF TIME STEP    1 IN STRESS PERIOD   10
                    SECONDS     MINUTES      HOURS       DAYS        YEARS
                    -----------------------------------------------------------
   TIME STEP LENGTH  300.00      5.0000     8.33333E-02 3.47222E-03 9.50643E-06
 STRESS PERIOD TIME  300.00      5.0000     8.33333E-02 3.47222E-03 9.50643E-06
         TOTAL TIME  3000.0      50.000     0.83333     3.47222E-02 9.50643E-05


end timestep


start timestep kper="11" kstp="1" mode="normal"


 OUTPUT CONTROL FOR STRESS PERIOD 11 IS REPEATED USING SETTINGS FROM A PREVIOUS STRESS PERIOD.

 REUSING CHDS FROM LAST STRESS PERIOD
 UBDSV1 SAVING     FLOW-JA-FACE ON UNIT   1022 AT TIME STEP      1, STRESS PERIOD     11
 UBDSV06 SAVING       DATA-SPDIS IN MODEL SERIES2GWF       PACKAGE NPF             CONNECTED TO MODEL SERIES2GWF       PACKAGE NPF              ON UNIT   1022 AT TIME STEP      1, STRESS PERIOD     11
 UBDSV06 SAVING         DATA-SAT IN MODEL SERIES2GWF       PACKAGE NPF             CONNECTED TO MODEL SERIES2GWF       PACKAGE NPF              ON UNIT   1022 AT TIME STEP      1, STRESS PERIOD     11
 UBDSV06 SAVING              CHD IN MODEL SERIES2GWF       PACKAGE SERIES2GWF      CONNECTED TO MODEL SERIES2GWF       PACKAGE CHD_0            ON UNIT   1022 AT TIME STEP      1, STRESS PERIOD     11

 HEAD WILL BE SAVED ON UNIT 1023 AT END OF TIME STEP    1, STRESS PERIOD   11


  VOLUME BUDGET FOR ENTIRE MODEL AT END OF TIME STEP    1, STRESS PERIOD  11
  ---------------------------------------------------------------------------------------------------

     CUMULATIVE VOLUME      L**3       RATES FOR THIS TIME STEP      L**3/T          PACKAGE NAME    
     ------------------                 ------------------------                     ----------------

           IN:                                      IN:
           ---                                      ---
                 CHD =         730.9749                   CHD =          13.8872     CHD_0           

            TOTAL IN =         730.9749              TOTAL IN =          13.8872

          OUT:                                     OUT:
          ----                                     ----
                 CHD =         819.9779                   CHD =          14.1010     CHD_0           

           TOTAL OUT =         819.9779             TOTAL OUT =          14.1010

            IN - OUT =          89.0030              IN - OUT =           0.2138

 PERCENT DISCREPANCY =         -11.48     PERCENT DISCREPANCY =          -1.53




         TIME SUMMARY AT END OF TIME STEP    1 IN STRESS PERIOD   11
                    SECONDS     MINUTES      HOURS       DAYS        YEARS
                    -----------------------------------------------------------
   TIME STEP LENGTH  300.00      5.0000     8.33333E-02 3.47222E-03 9.50643E-06
 STRESS PERIOD TIME  300.00      5.0000     8.33333E-02 3.47222E-03 9.50643E-06
         TOTAL TIME  3300.0      55.000     0.91667     3.81944E-02 1.04571E-04


end timestep


start timestep kper="12" kstp="1" mode="normal"


 OUTPUT CONTROL FOR STRESS PERIOD 12 IS REPEATED USING SETTINGS FROM A PREVIOUS STRESS PERIOD.

 REUSING CHDS FROM LAST STRESS PERIOD
 UBDSV1 SAVING     FLOW-JA-FACE ON UNIT   1022 AT TIME STEP      1, STRESS PERIOD     12
 UBDSV06 SAVING       DATA-SPDIS IN MODEL SERIES2GWF       PACKAGE NPF             CONNECTED TO MODEL SERIES2GWF       PACKAGE NPF              ON UNIT   1022 AT TIME STEP      1, STRESS PERIOD     12
 UBDSV06 SAVING         DATA-SAT IN MODEL SERIES2GWF       PACKAGE NPF             CONNECTED TO MODEL SERIES2GWF       PACKAGE NPF              ON UNIT   1022 AT TIME STEP      1, STRESS PERIOD     12
 UBDSV06 SAVING              CHD IN MODEL SERIES2GWF       PACKAGE SERIES2GWF      CONNECTED TO MODEL SERIES2GWF       PACKAGE CHD_0            ON UNIT   1022 AT TIME STEP      1, STRESS PERIOD     12

 HEAD WILL BE SAVED ON UNIT 1023 AT END OF TIME STEP    1, STRESS PERIOD   12


  VOLUME BUDGET FOR ENTIRE MODEL AT END OF TIME STEP    1, STRESS PERIOD  12
  ---------------------------------------------------------------------------------------------------

     CUMULATIVE VOLUME      L**3       RATES FOR THIS TIME STEP      L**3/T          PACKAGE NAME    
     ------------------                 ------------------------                     ----------------

           IN:                                      IN:
           ---                                      ---
                 CHD =         800.4413                   CHD =          13.8933     CHD_0           

            TOTAL IN =         800.4413              TOTAL IN =          13.8933

          OUT:                                     OUT:
          ----                                     ----
                 CHD =         890.4365                   CHD =          14.0917     CHD_0           

           TOTAL OUT =         890.4365             TOTAL OUT =          14.0917

            IN - OUT =          89.9951              IN - OUT =           0.1984

 PERCENT DISCREPANCY =         -10.64     PERCENT DISCREPANCY =          -1.42




         TIME SUMMARY AT END OF TIME STEP    1 IN STRESS PERIOD   12
                    SECONDS     MINUTES      HOURS       DAYS        YEARS
                    -----------------------------------------------------------
   TIME STEP LENGTH  300.00      5.0000     8.33333E-02 3.47222E-03 9.50643E-06
 STRESS PERIOD TIME  300.00      5.0000     8.33333E-02 3.47222E-03 9.50643E-06
         TOTAL TIME  3600.0      60.000      1.0000     4.16667E-02 1.14077E-04


end timestep


start timestep kper="13" kstp="1" mode="normal"


 OUTPUT CONTROL FOR STRESS PERIOD 13 IS REPEATED USING SETTINGS FROM A PREVIOUS STRESS PERIOD.

 REUSING CHDS FROM LAST STRESS PERIOD
 UBDSV1 SAVING     FLOW-JA-FACE ON UNIT   1022 AT TIME STEP      1, STRESS PERIOD     13
 UBDSV06 SAVING       DATA-SPDIS IN MODEL SERIES2GWF       PACKAGE NPF             CONNECTED TO MODEL SERIES2GWF       PACKAGE NPF              ON UNIT   1022 AT TIME STEP      1, STRESS PERIOD     13
 UBDSV06 SAVING         DATA-SAT IN MODEL SERIES2GWF       PACKAGE NPF             CONNECTED TO MODEL SERIES2GWF       PACKAGE NPF              ON UNIT   1022 AT TIME STEP      1, STRESS PERIOD     13
 UBDSV06 SAVING              CHD IN MODEL SERIES2GWF       PACKAGE SERIES2GWF      CONNECTED TO MODEL SERIES2GWF       PACKAGE CHD_0            ON UNIT   1022 AT TIME STEP      1, STRESS PERIOD     13

 HEAD WILL BE SAVED ON UNIT 1023 AT END OF TIME STEP    1, STRESS PERIOD   13


  VOLUME BUDGET FOR ENTIRE MODEL AT END OF TIME STEP    1, STRESS PERIOD  13
  ---------------------------------------------------------------------------------------------------

     CUMULATIVE VOLUME      L**3       RATES FOR THIS TIME STEP      L**3/T          PACKAGE NAME    
     ------------------                 ------------------------                     ----------------

           IN:                                      IN:
           ---                                      ---
                 CHD =         869.9478                   CHD =          13.9013     CHD_0           

            TOTAL IN =         869.9478              TOTAL IN =          13.9013

          OUT:                                     OUT:
          ----                                     ----
                 CHD =         960.8348                   CHD =          14.0797     CHD_0           

           TOTAL OUT =         960.8348             TOTAL OUT =          14.0797

            IN - OUT =          90.8869              IN - OUT =           0.1784

 PERCENT DISCREPANCY =          -9.93     PERCENT DISCREPANCY =          -1.27




         TIME SUMMARY AT END OF TIME STEP    1 IN STRESS PERIOD   13
                    SECONDS     MINUTES      HOURS       DAYS        YEARS
                    -----------------------------------------------------------
   TIME STEP LENGTH  300.00      5.0000     8.33333E-02 3.47222E-03 9.50643E-06
 STRESS PERIOD TIME  300.00      5.0000     8.33333E-02 3.47222E-03 9.50643E-06
         TOTAL TIME  3900.0      65.000      1.0833     4.51389E-02 1.23584E-04


end timestep


start timestep kper="14" kstp="1" mode="normal"


 OUTPUT CONTROL FOR STRESS PERIOD 14 IS REPEATED USING SETTINGS FROM A PREVIOUS STRESS PERIOD.

 REUSING CHDS FROM LAST STRESS PERIOD
 UBDSV1 SAVING     FLOW-JA-FACE ON UNIT   1022 AT TIME STEP      1, STRESS PERIOD     14
 UBDSV06 SAVING       DATA-SPDIS IN MODEL SERIES2GWF       PACKAGE NPF             CONNECTED TO MODEL SERIES2GWF       PACKAGE NPF              ON UNIT   1022 AT TIME STEP      1, STRESS PERIOD     14
 UBDSV06 SAVING         DATA-SAT IN MODEL SERIES2GWF       PACKAGE NPF             CONNECTED TO MODEL SERIES2GWF       PACKAGE NPF              ON UNIT   1022 AT TIME STEP      1, STRESS PERIOD     14
 UBDSV06 SAVING              CHD IN MODEL SERIES2GWF       PACKAGE SERIES2GWF      CONNECTED TO MODEL SERIES2GWF       PACKAGE CHD_0            ON UNIT   1022 AT TIME STEP      1, STRESS PERIOD     14

 HEAD WILL BE SAVED ON UNIT 1023 AT END OF TIME STEP    1, STRESS PERIOD   14


  VOLUME BUDGET FOR ENTIRE MODEL AT END OF TIME STEP    1, STRESS PERIOD  14
  ---------------------------------------------------------------------------------------------------

     CUMULATIVE VOLUME      L**3       RATES FOR THIS TIME STEP      L**3/T          PACKAGE NAME    
     ------------------                 ------------------------                     ----------------

           IN:                                      IN:
           ---                                      ---
                 CHD =         939.4747                   CHD =          13.9054     CHD_0           

            TOTAL IN =         939.4747              TOTAL IN =          13.9054

          OUT:                                     OUT:
          ----                                     ----
                 CHD =        1031.2027                   CHD =          14.0736     CHD_0           

           TOTAL OUT =        1031.2027             TOTAL OUT =          14.0736

            IN - OUT =          91.7279              IN - OUT =           0.1682

 PERCENT DISCREPANCY =          -9.31     PERCENT DISCREPANCY =          -1.20




         TIME SUMMARY AT END OF TIME STEP    1 IN STRESS PERIOD   14
                    SECONDS     MINUTES      HOURS       DAYS        YEARS
                    -----------------------------------------------------------
   TIME STEP LENGTH  300.00      5.0000     8.33333E-02 3.47222E-03 9.50643E-06
 STRESS PERIOD TIME  300.00      5.0000     8.33333E-02 3.47222E-03 9.50643E-06
         TOTAL TIME  4200.0      70.000      1.1667     4.86111E-02 1.33090E-04


end timestep


start timestep kper="15" kstp="1" mode="normal"


 OUTPUT CONTROL FOR STRESS PERIOD 15 IS REPEATED USING SETTINGS FROM A PREVIOUS STRESS PERIOD.

 REUSING CHDS FROM LAST STRESS PERIOD
 UBDSV1 SAVING     FLOW-JA-FACE ON UNIT   1022 AT TIME STEP      1, STRESS PERIOD     15
 UBDSV06 SAVING       DATA-SPDIS IN MODEL SERIES2GWF       PACKAGE NPF             CONNECTED TO MODEL SERIES2GWF       PACKAGE NPF              ON UNIT   1022 AT TIME STEP      1, STRESS PERIOD     15
 UBDSV06 SAVING         DATA-SAT IN MODEL SERIES2GWF       PACKAGE NPF             CONNECTED TO MODEL SERIES2GWF       PACKAGE NPF              ON UNIT   1022 AT TIME STEP      1, STRESS PERIOD     15
 UBDSV06 SAVING              CHD IN MODEL SERIES2GWF       PACKAGE SERIES2GWF      CONNECTED TO MODEL SERIES2GWF       PACKAGE CHD_0            ON UNIT   1022 AT TIME STEP      1, STRESS PERIOD     15

 HEAD WILL BE SAVED ON UNIT 1023 AT END OF TIME STEP    1, STRESS PERIOD   15


  VOLUME BUDGET FOR ENTIRE MODEL AT END OF TIME STEP    1, STRESS PERIOD  15
  ---------------------------------------------------------------------------------------------------

     CUMULATIVE VOLUME      L**3       RATES FOR THIS TIME STEP      L**3/T          PACKAGE NAME    
     ------------------                 ------------------------                     ----------------

           IN:                                      IN:
           ---                                      ---
                 CHD =        1009.0255                   CHD =          13.9102     CHD_0           

            TOTAL IN =        1009.0255              TOTAL IN =          13.9102

          OUT:                                     OUT:
          ----                                     ----
                 CHD =        1101.5352                   CHD =          14.0665     CHD_0           

           TOTAL OUT =        1101.5352             TOTAL OUT =          14.0665

            IN - OUT =          92.5097              IN - OUT =           0.1563

 PERCENT DISCREPANCY =          -8.77     PERCENT DISCREPANCY =          -1.12




         TIME SUMMARY AT END OF TIME STEP    1 IN STRESS PERIOD   15
                    SECONDS     MINUTES      HOURS       DAYS        YEARS
                    -----------------------------------------------------------
   TIME STEP LENGTH  300.00      5.0000     8.33333E-02 3.47222E-03 9.50643E-06
 STRESS PERIOD TIME  300.00      5.0000     8.33333E-02 3.47222E-03 9.50643E-06
         TOTAL TIME  4500.0      75.000      1.2500     5.20833E-02 1.42596E-04


end timestep


start timestep kper="16" kstp="1" mode="normal"


 OUTPUT CONTROL FOR STRESS PERIOD 16 IS REPEATED USING SETTINGS FROM A PREVIOUS STRESS PERIOD.

 REUSING CHDS FROM LAST STRESS PERIOD
 UBDSV1 SAVING     FLOW-JA-FACE ON UNIT   1022 AT TIME STEP      1, STRESS PERIOD     16
 UBDSV06 SAVING       DATA-SPDIS IN MODEL SERIES2GWF       PACKAGE NPF             CONNECTED TO MODEL SERIES2GWF       PACKAGE NPF              ON UNIT   1022 AT TIME STEP      1, STRESS PERIOD     16
 UBDSV06 SAVING         DATA-SAT IN MODEL SERIES2GWF       PACKAGE NPF             CONNECTED TO MODEL SERIES2GWF       PACKAGE NPF              ON UNIT   1022 AT TIME STEP      1, STRESS PERIOD     16
 UBDSV06 SAVING              CHD IN MODEL SERIES2GWF       PACKAGE SERIES2GWF      CONNECTED TO MODEL SERIES2GWF       PACKAGE CHD_0            ON UNIT   1022 AT TIME STEP      1, STRESS PERIOD     16

 HEAD WILL BE SAVED ON UNIT 1023 AT END OF TIME STEP    1, STRESS PERIOD   16


  VOLUME BUDGET FOR ENTIRE MODEL AT END OF TIME STEP    1, STRESS PERIOD  16
  ---------------------------------------------------------------------------------------------------

     CUMULATIVE VOLUME      L**3       RATES FOR THIS TIME STEP      L**3/T          PACKAGE NAME    
     ------------------                 ------------------------                     ----------------

           IN:                                      IN:
           ---                                      ---
                 CHD =        1078.5998                   CHD =          13.9149     CHD_0           

            TOTAL IN =        1078.5998              TOTAL IN =          13.9149

          OUT:                                     OUT:
          ----                                     ----
                 CHD =        1171.8330                   CHD =          14.0596     CHD_0           

           TOTAL OUT =        1171.8330             TOTAL OUT =          14.0596

            IN - OUT =          93.2332              IN - OUT =           0.1447

 PERCENT DISCREPANCY =          -8.29     PERCENT DISCREPANCY =          -1.03




         TIME SUMMARY AT END OF TIME STEP    1 IN STRESS PERIOD   16
                    SECONDS     MINUTES      HOURS       DAYS        YEARS
                    -----------------------------------------------------------
   TIME STEP LENGTH  300.00      5.0000     8.33333E-02 3.47222E-03 9.50643E-06
 STRESS PERIOD TIME  300.00      5.0000     8.33333E-02 3.47222E-03 9.50643E-06
         TOTAL TIME  4800.0      80.000      1.3333     5.55556E-02 1.52103E-04


end timestep


start timestep kper="17" kstp="1" mode="normal"


 OUTPUT CONTROL FOR STRESS PERIOD 17 IS REPEATED USING SETTINGS FROM A PREVIOUS STRESS PERIOD.

 REUSING CHDS FROM LAST STRESS PERIOD
 UBDSV1 SAVING     FLOW-JA-FACE ON UNIT   1022 AT TIME STEP      1, STRESS PERIOD     17
 UBDSV06 SAVING       DATA-SPDIS IN MODEL SERIES2GWF       PACKAGE NPF             CONNECTED TO MODEL SERIES2GWF       PACKAGE NPF              ON UNIT   1022 AT TIME STEP      1, STRESS PERIOD     17
 UBDSV06 SAVING         DATA-SAT IN MODEL SERIES2GWF       PACKAGE NPF             CONNECTED TO MODEL SERIES2GWF       PACKAGE NPF              ON UNIT   1022 AT TIME STEP      1, STRESS PERIOD     17
 UBDSV06 SAVING              CHD IN MODEL SERIES2GWF       PACKAGE SERIES2GWF      CONNECTED TO MODEL SERIES2GWF       PACKAGE CHD_0            ON UNIT   1022 AT TIME STEP      1, STRESS PERIOD     17

 HEAD WILL BE SAVED ON UNIT 1023 AT END OF TIME STEP    1, STRESS PERIOD   17


  VOLUME BUDGET FOR ENTIRE MODEL AT END OF TIME STEP    1, STRESS PERIOD  17
  ---------------------------------------------------------------------------------------------------

     CUMULATIVE VOLUME      L**3       RATES FOR THIS TIME STEP      L**3/T          PACKAGE NAME    
     ------------------                 ------------------------                     ----------------

           IN:                                      IN:
           ---                                      ---
                 CHD =        1148.1949                   CHD =          13.9190     CHD_0           

            TOTAL IN =        1148.1949              TOTAL IN =          13.9190

          OUT:                                     OUT:
          ----                                     ----
                 CHD =        1242.1004                   CHD =          14.0535     CHD_0           

           TOTAL OUT =        1242.1004             TOTAL OUT =          14.0535

            IN - OUT =          93.9055              IN - OUT =           0.1345

 PERCENT DISCREPANCY =          -7.86     PERCENT DISCREPANCY =          -0.96




         TIME SUMMARY AT END OF TIME STEP    1 IN STRESS PERIOD   17
                    SECONDS     MINUTES      HOURS       DAYS        YEARS
                    -----------------------------------------------------------
   TIME STEP LENGTH  300.00      5.0000     8.33333E-02 3.47222E-03 9.50643E-06
 STRESS PERIOD TIME  300.00      5.0000     8.33333E-02 3.47222E-03 9.50643E-06
         TOTAL TIME  5100.0      85.000      1.4167     5.90278E-02 1.61609E-04


end timestep


start timestep kper="18" kstp="1" mode="normal"


 OUTPUT CONTROL FOR STRESS PERIOD 18 IS REPEATED USING SETTINGS FROM A PREVIOUS STRESS PERIOD.

 REUSING CHDS FROM LAST STRESS PERIOD
 UBDSV1 SAVING     FLOW-JA-FACE ON UNIT   1022 AT TIME STEP      1, STRESS PERIOD     18
 UBDSV06 SAVING       DATA-SPDIS IN MODEL SERIES2GWF       PACKAGE NPF             CONNECTED TO MODEL SERIES2GWF       PACKAGE NPF              ON UNIT   1022 AT TIME STEP      1, STRESS PERIOD     18
 UBDSV06 SAVING         DATA-SAT IN MODEL SERIES2GWF       PACKAGE NPF             CONNECTED TO MODEL SERIES2GWF       PACKAGE NPF              ON UNIT   1022 AT TIME STEP      1, STRESS PERIOD     18
 UBDSV06 SAVING              CHD IN MODEL SERIES2GWF       PACKAGE SERIES2GWF      CONNECTED TO MODEL SERIES2GWF       PACKAGE CHD_0            ON UNIT   1022 AT TIME STEP      1, STRESS PERIOD     18

 HEAD WILL BE SAVED ON UNIT 1023 AT END OF TIME STEP    1, STRESS PERIOD   18


  VOLUME BUDGET FOR ENTIRE MODEL AT END OF TIME STEP    1, STRESS PERIOD  18
  ---------------------------------------------------------------------------------------------------

     CUMULATIVE VOLUME      L**3       RATES FOR THIS TIME STEP      L**3/T          PACKAGE NAME    
     ------------------                 ------------------------                     ----------------

           IN:                                      IN:
           ---                                      ---
                 CHD =        1217.7979                   CHD =          13.9206     CHD_0           

            TOTAL IN =        1217.7979              TOTAL IN =          13.9206

          OUT:                                     OUT:
          ----                                     ----
                 CHD =        1312.3560                   CHD =          14.0511     CHD_0           

           TOTAL OUT =        1312.3560             TOTAL OUT =          14.0511

            IN - OUT =          94.5582              IN - OUT =           0.1305

 PERCENT DISCREPANCY =          -7.47     PERCENT DISCREPANCY =          -0.93




         TIME SUMMARY AT END OF TIME STEP    1 IN STRESS PERIOD   18
                    SECONDS     MINUTES      HOURS       DAYS        YEARS
                    -----------------------------------------------------------
   TIME STEP LENGTH  300.00      5.0000     8.33333E-02 3.47222E-03 9.50643E-06
 STRESS PERIOD TIME  300.00      5.0000     8.33333E-02 3.47222E-03 9.50643E-06
         TOTAL TIME  5400.0      90.000      1.5000     6.25000E-02 1.71116E-04


end timestep


start timestep kper="19" kstp="1" mode="normal"


 OUTPUT CONTROL FOR STRESS PERIOD 19 IS REPEATED USING SETTINGS FROM A PREVIOUS STRESS PERIOD.

 REUSING CHDS FROM LAST STRESS PERIOD
 UBDSV1 SAVING     FLOW-JA-FACE ON UNIT   1022 AT TIME STEP      1, STRESS PERIOD     19
 UBDSV06 SAVING       DATA-SPDIS IN MODEL SERIES2GWF       PACKAGE NPF             CONNECTED TO MODEL SERIES2GWF       PACKAGE NPF              ON UNIT   1022 AT TIME STEP      1, STRESS PERIOD     19
 UBDSV06 SAVING         DATA-SAT IN MODEL SERIES2GWF       PACKAGE NPF             CONNECTED TO MODEL SERIES2GWF       PACKAGE NPF              ON UNIT   1022 AT TIME STEP      1, STRESS PERIOD     19
 UBDSV06 SAVING              CHD IN MODEL SERIES2GWF       PACKAGE SERIES2GWF      CONNECTED TO MODEL SERIES2GWF       PACKAGE CHD_0            ON UNIT   1022 AT TIME STEP      1, STRESS PERIOD     19

 HEAD WILL BE SAVED ON UNIT 1023 AT END OF TIME STEP    1, STRESS PERIOD   19


  VOLUME BUDGET FOR ENTIRE MODEL AT END OF TIME STEP    1, STRESS PERIOD  19
  ---------------------------------------------------------------------------------------------------

     CUMULATIVE VOLUME      L**3       RATES FOR THIS TIME STEP      L**3/T          PACKAGE NAME    
     ------------------                 ------------------------                     ----------------

           IN:                                      IN:
           ---                                      ---
                 CHD =        1287.4246                   CHD =          13.9253     CHD_0           

            TOTAL IN =        1287.4246              TOTAL IN =          13.9253

          OUT:                                     OUT:
          ----                                     ----
                 CHD =        1382.5769                   CHD =          14.0442     CHD_0           

           TOTAL OUT =        1382.5769             TOTAL OUT =          14.0442

            IN - OUT =          95.1523              IN - OUT =           0.1188

 PERCENT DISCREPANCY =          -7.13     PERCENT DISCREPANCY =          -0.85




         TIME SUMMARY AT END OF TIME STEP    1 IN STRESS PERIOD   19
                    SECONDS     MINUTES      HOURS       DAYS        YEARS
                    -----------------------------------------------------------
   TIME STEP LENGTH  300.00      5.0000     8.33333E-02 3.47222E-03 9.50643E-06
 STRESS PERIOD TIME  300.00      5.0000     8.33333E-02 3.47222E-03 9.50643E-06
         TOTAL TIME  5700.0      95.000      1.5833     6.59722E-02 1.80622E-04


end timestep


start timestep kper="20" kstp="1" mode="normal"


 OUTPUT CONTROL FOR STRESS PERIOD 20 IS REPEATED USING SETTINGS FROM A PREVIOUS STRESS PERIOD.

 REUSING CHDS FROM LAST STRESS PERIOD
 UBDSV1 SAVING     FLOW-JA-FACE ON UNIT   1022 AT TIME STEP      1, STRESS PERIOD     20
 UBDSV06 SAVING       DATA-SPDIS IN MODEL SERIES2GWF       PACKAGE NPF             CONNECTED TO MODEL SERIES2GWF       PACKAGE NPF              ON UNIT   1022 AT TIME STEP      1, STRESS PERIOD     20
 UBDSV06 SAVING         DATA-SAT IN MODEL SERIES2GWF       PACKAGE NPF             CONNECTED TO MODEL SERIES2GWF       PACKAGE NPF              ON UNIT   1022 AT TIME STEP      1, STRESS PERIOD     20
 UBDSV06 SAVING              CHD IN MODEL SERIES2GWF       PACKAGE SERIES2GWF      CONNECTED TO MODEL SERIES2GWF       PACKAGE CHD_0            ON UNIT   1022 AT TIME STEP      1, STRESS PERIOD     20

 HEAD WILL BE SAVED ON UNIT 1023 AT END OF TIME STEP    1, STRESS PERIOD   20


  VOLUME BUDGET FOR ENTIRE MODEL AT END OF TIME STEP    1, STRESS PERIOD  20
  ---------------------------------------------------------------------------------------------------

     CUMULATIVE VOLUME      L**3       RATES FOR THIS TIME STEP      L**3/T          PACKAGE NAME    
     ------------------                 ------------------------                     ----------------

           IN:                                      IN:
           ---                                      ---
                 CHD =        1357.0685                   CHD =          13.9288     CHD_0           

            TOTAL IN =        1357.0685              TOTAL IN =          13.9288

          OUT:                                     OUT:
          ----                                     ----
                 CHD =        1452.7728                   CHD =          14.0392     CHD_0           

           TOTAL OUT =        1452.7728             TOTAL OUT =          14.0392

            IN - OUT =          95.7043              IN - OUT =           0.1104

 PERCENT DISCREPANCY =          -6.81     PERCENT DISCREPANCY =          -0.79




         TIME SUMMARY AT END OF TIME STEP    1 IN STRESS PERIOD   20
                    SECONDS     MINUTES      HOURS       DAYS        YEARS
                    -----------------------------------------------------------
   TIME STEP LENGTH  300.00      5.0000     8.33333E-02 3.47222E-03 9.50643E-06
 STRESS PERIOD TIME  300.00      5.0000     8.33333E-02 3.47222E-03 9.50643E-06
         TOTAL TIME  6000.0      100.00      1.6667     6.94444E-02 1.90129E-04


end timestep


start timestep kper="21" kstp="1" mode="normal"


 OUTPUT CONTROL FOR STRESS PERIOD 21 IS REPEATED USING SETTINGS FROM A PREVIOUS STRESS PERIOD.

 REUSING CHDS FROM LAST STRESS PERIOD
 UBDSV1 SAVING     FLOW-JA-FACE ON UNIT   1022 AT TIME STEP      1, STRESS PERIOD     21
 UBDSV06 SAVING       DATA-SPDIS IN MODEL SERIES2GWF       PACKAGE NPF             CONNECTED TO MODEL SERIES2GWF       PACKAGE NPF              ON UNIT   1022 AT TIME STEP      1, STRESS PERIOD     21
 UBDSV06 SAVING         DATA-SAT IN MODEL SERIES2GWF       PACKAGE NPF             CONNECTED TO MODEL SERIES2GWF       PACKAGE NPF              ON UNIT   1022 AT TIME STEP      1, STRESS PERIOD     21
 UBDSV06 SAVING              CHD IN MODEL SERIES2GWF       PACKAGE SERIES2GWF      CONNECTED TO MODEL SERIES2GWF       PACKAGE CHD_0            ON UNIT   1022 AT TIME STEP      1, STRESS PERIOD     21

 HEAD WILL BE SAVED ON UNIT 1023 AT END OF TIME STEP    1, STRESS PERIOD   21


  VOLUME BUDGET FOR ENTIRE MODEL AT END OF TIME STEP    1, STRESS PERIOD  21
  ---------------------------------------------------------------------------------------------------

     CUMULATIVE VOLUME      L**3       RATES FOR THIS TIME STEP      L**3/T          PACKAGE NAME    
     ------------------                 ------------------------                     ----------------

           IN:                                      IN:
           ---                                      ---
                 CHD =        1426.7278                   CHD =          13.9319     CHD_0           

            TOTAL IN =        1426.7278              TOTAL IN =          13.9319

          OUT:                                     OUT:
          ----                                     ----
                 CHD =        1522.9459                   CHD =          14.0346     CHD_0           

           TOTAL OUT =        1522.9459             TOTAL OUT =          14.0346

            IN - OUT =          96.2181              IN - OUT =           0.1028

 PERCENT DISCREPANCY =          -6.52     PERCENT DISCREPANCY =          -0.73




         TIME SUMMARY AT END OF TIME STEP    1 IN STRESS PERIOD   21
                    SECONDS     MINUTES      HOURS       DAYS        YEARS
                    -----------------------------------------------------------
   TIME STEP LENGTH  300.00      5.0000     8.33333E-02 3.47222E-03 9.50643E-06
 STRESS PERIOD TIME  300.00      5.0000     8.33333E-02 3.47222E-03 9.50643E-06
         TOTAL TIME  6300.0      105.00      1.7500     7.29167E-02 1.99635E-04


end timestep


start timestep kper="22" kstp="1" mode="normal"


 OUTPUT CONTROL FOR STRESS PERIOD 22 IS REPEATED USING SETTINGS FROM A PREVIOUS STRESS PERIOD.

 REUSING CHDS FROM LAST STRESS PERIOD
 UBDSV1 SAVING     FLOW-JA-FACE ON UNIT   1022 AT TIME STEP      1, STRESS PERIOD     22
 UBDSV06 SAVING       DATA-SPDIS IN MODEL SERIES2GWF       PACKAGE NPF             CONNECTED TO MODEL SERIES2GWF       PACKAGE NPF              ON UNIT   1022 AT TIME STEP      1, STRESS PERIOD     22
 UBDSV06 SAVING         DATA-SAT IN MODEL SERIES2GWF       PACKAGE NPF             CONNECTED TO MODEL SERIES2GWF       PACKAGE NPF              ON UNIT   1022 AT TIME STEP      1, STRESS PERIOD     22
 UBDSV06 SAVING              CHD IN MODEL SERIES2GWF       PACKAGE SERIES2GWF      CONNECTED TO MODEL SERIES2GWF       PACKAGE CHD_0            ON UNIT   1022 AT TIME STEP      1, STRESS PERIOD     22

 HEAD WILL BE SAVED ON UNIT 1023 AT END OF TIME STEP    1, STRESS PERIOD   22


  VOLUME BUDGET FOR ENTIRE MODEL AT END OF TIME STEP    1, STRESS PERIOD  22
  ---------------------------------------------------------------------------------------------------

     CUMULATIVE VOLUME      L**3       RATES FOR THIS TIME STEP      L**3/T          PACKAGE NAME    
     ------------------                 ------------------------                     ----------------

           IN:                                      IN:
           ---                                      ---
                 CHD =        1496.4028                   CHD =          13.9350     CHD_0           

            TOTAL IN =        1496.4028              TOTAL IN =          13.9350

          OUT:                                     OUT:
          ----                                     ----
                 CHD =        1593.0963                   CHD =          14.0301     CHD_0           

           TOTAL OUT =        1593.0963             TOTAL OUT =          14.0301

            IN - OUT =          96.6935              IN - OUT =       9.5075E-02

 PERCENT DISCREPANCY =          -6.26     PERCENT DISCREPANCY =          -0.68




         TIME SUMMARY AT END OF TIME STEP    1 IN STRESS PERIOD   22
                    SECONDS     MINUTES      HOURS       DAYS        YEARS
                    -----------------------------------------------------------
   TIME STEP LENGTH  300.00      5.0000     8.33333E-02 3.47222E-03 9.50643E-06
 STRESS PERIOD TIME  300.00      5.0000     8.33333E-02 3.47222E-03 9.50643E-06
         TOTAL TIME  6600.0      110.00      1.8333     7.63889E-02 2.09141E-04


end timestep


start timestep kper="23" kstp="1" mode="normal"


 OUTPUT CONTROL FOR STRESS PERIOD 23 IS REPEATED USING SETTINGS FROM A PREVIOUS STRESS PERIOD.

 REUSING CHDS FROM LAST STRESS PERIOD
 UBDSV1 SAVING     FLOW-JA-FACE ON UNIT   1022 AT TIME STEP      1, STRESS PERIOD     23
 UBDSV06 SAVING       DATA-SPDIS IN MODEL SERIES2GWF       PACKAGE NPF             CONNECTED TO MODEL SERIES2GWF       PACKAGE NPF              ON UNIT   1022 AT TIME STEP      1, STRESS PERIOD     23
 UBDSV06 SAVING         DATA-SAT IN MODEL SERIES2GWF       PACKAGE NPF             CONNECTED TO MODEL SERIES2GWF       PACKAGE NPF              ON UNIT   1022 AT TIME STEP      1, STRESS PERIOD     23
 UBDSV06 SAVING              CHD IN MODEL SERIES2GWF       PACKAGE SERIES2GWF      CONNECTED TO MODEL SERIES2GWF       PACKAGE CHD_0            ON UNIT   1022 AT TIME STEP      1, STRESS PERIOD     23

 HEAD WILL BE SAVED ON UNIT 1023 AT END OF TIME STEP    1, STRESS PERIOD   23


  VOLUME BUDGET FOR ENTIRE MODEL AT END OF TIME STEP    1, STRESS PERIOD  23
  ---------------------------------------------------------------------------------------------------

     CUMULATIVE VOLUME      L**3       RATES FOR THIS TIME STEP      L**3/T          PACKAGE NAME    
     ------------------                 ------------------------                     ----------------

           IN:                                      IN:
           ---                                      ---
                 CHD =        1566.0908                   CHD =          13.9376     CHD_0           

            TOTAL IN =        1566.0908              TOTAL IN =          13.9376

          OUT:                                     OUT:
          ----                                     ----
                 CHD =        1663.2277                   CHD =          14.0263     CHD_0           

           TOTAL OUT =        1663.2277             TOTAL OUT =          14.0263

            IN - OUT =          97.1369              IN - OUT =       8.8695E-02

 PERCENT DISCREPANCY =          -6.02     PERCENT DISCREPANCY =          -0.63




         TIME SUMMARY AT END OF TIME STEP    1 IN STRESS PERIOD   23
                    SECONDS     MINUTES      HOURS       DAYS        YEARS
                    -----------------------------------------------------------
   TIME STEP LENGTH  300.00      5.0000     8.33333E-02 3.47222E-03 9.50643E-06
 STRESS PERIOD TIME  300.00      5.0000     8.33333E-02 3.47222E-03 9.50643E-06
         TOTAL TIME  6900.0      115.00      1.9167     7.98611E-02 2.18648E-04


end timestep


start timestep kper="24" kstp="1" mode="normal"


 OUTPUT CONTROL FOR STRESS PERIOD 24 IS REPEATED USING SETTINGS FROM A PREVIOUS STRESS PERIOD.

 REUSING CHDS FROM LAST STRESS PERIOD
 UBDSV1 SAVING     FLOW-JA-FACE ON UNIT   1022 AT TIME STEP      1, STRESS PERIOD     24
 UBDSV06 SAVING       DATA-SPDIS IN MODEL SERIES2GWF       PACKAGE NPF             CONNECTED TO MODEL SERIES2GWF       PACKAGE NPF              ON UNIT   1022 AT TIME STEP      1, STRESS PERIOD     24
 UBDSV06 SAVING         DATA-SAT IN MODEL SERIES2GWF       PACKAGE NPF             CONNECTED TO MODEL SERIES2GWF       PACKAGE NPF              ON UNIT   1022 AT TIME STEP      1, STRESS PERIOD     24
 UBDSV06 SAVING              CHD IN MODEL SERIES2GWF       PACKAGE SERIES2GWF      CONNECTED TO MODEL SERIES2GWF       PACKAGE CHD_0            ON UNIT   1022 AT TIME STEP      1, STRESS PERIOD     24

 HEAD WILL BE SAVED ON UNIT 1023 AT END OF TIME STEP    1, STRESS PERIOD   24


  VOLUME BUDGET FOR ENTIRE MODEL AT END OF TIME STEP    1, STRESS PERIOD  24
  ---------------------------------------------------------------------------------------------------

     CUMULATIVE VOLUME      L**3       RATES FOR THIS TIME STEP      L**3/T          PACKAGE NAME    
     ------------------                 ------------------------                     ----------------

           IN:                                      IN:
           ---                                      ---
                 CHD =        1635.7952                   CHD =          13.9409     CHD_0           

            TOTAL IN =        1635.7952              TOTAL IN =          13.9409

          OUT:                                     OUT:
          ----                                     ----
                 CHD =        1733.3350                   CHD =          14.0215     CHD_0           

           TOTAL OUT =        1733.3350             TOTAL OUT =          14.0215

            IN - OUT =          97.5398              IN - OUT =       8.0573E-02

 PERCENT DISCREPANCY =          -5.79     PERCENT DISCREPANCY =          -0.58




         TIME SUMMARY AT END OF TIME STEP    1 IN STRESS PERIOD   24
                    SECONDS     MINUTES      HOURS       DAYS        YEARS
                    -----------------------------------------------------------
   TIME STEP LENGTH  300.00      5.0000     8.33333E-02 3.47222E-03 9.50643E-06
 STRESS PERIOD TIME  300.00      5.0000     8.33333E-02 3.47222E-03 9.50643E-06
         TOTAL TIME  7200.0      120.00      2.0000     8.33333E-02 2.28154E-04


end timestep


start timestep kper="25" kstp="1" mode="normal"


 OUTPUT CONTROL FOR STRESS PERIOD 25 IS REPEATED USING SETTINGS FROM A PREVIOUS STRESS PERIOD.

 REUSING CHDS FROM LAST STRESS PERIOD
 UBDSV1 SAVING     FLOW-JA-FACE ON UNIT   1022 AT TIME STEP      1, STRESS PERIOD     25
 UBDSV06 SAVING       DATA-SPDIS IN MODEL SERIES2GWF       PACKAGE NPF             CONNECTED TO MODEL SERIES2GWF       PACKAGE NPF              ON UNIT   1022 AT TIME STEP      1, STRESS PERIOD     25
 UBDSV06 SAVING         DATA-SAT IN MODEL SERIES2GWF       PACKAGE NPF             CONNECTED TO MODEL SERIES2GWF       PACKAGE NPF              ON UNIT   1022 AT TIME STEP      1, STRESS PERIOD     25
 UBDSV06 SAVING              CHD IN MODEL SERIES2GWF       PACKAGE SERIES2GWF      CONNECTED TO MODEL SERIES2GWF       PACKAGE CHD_0            ON UNIT   1022 AT TIME STEP      1, STRESS PERIOD     25

 HEAD WILL BE SAVED ON UNIT 1023 AT END OF TIME STEP    1, STRESS PERIOD   25


  VOLUME BUDGET FOR ENTIRE MODEL AT END OF TIME STEP    1, STRESS PERIOD  25
  ---------------------------------------------------------------------------------------------------

     CUMULATIVE VOLUME      L**3       RATES FOR THIS TIME STEP      L**3/T          PACKAGE NAME    
     ------------------                 ------------------------                     ----------------

           IN:                                      IN:
           ---                                      ---
                 CHD =        1705.5109                   CHD =          13.9431     CHD_0           

            TOTAL IN =        1705.5109              TOTAL IN =          13.9431

          OUT:                                     OUT:
          ----                                     ----
                 CHD =        1803.4259                   CHD =          14.0182     CHD_0           

           TOTAL OUT =        1803.4259             TOTAL OUT =          14.0182

            IN - OUT =          97.9150              IN - OUT =       7.5037E-02

 PERCENT DISCREPANCY =          -5.58     PERCENT DISCREPANCY =          -0.54




         TIME SUMMARY AT END OF TIME STEP    1 IN STRESS PERIOD   25
                    SECONDS     MINUTES      HOURS       DAYS        YEARS
                    -----------------------------------------------------------
   TIME STEP LENGTH  300.00      5.0000     8.33333E-02 3.47222E-03 9.50643E-06
 STRESS PERIOD TIME  300.00      5.0000     8.33333E-02 3.47222E-03 9.50643E-06
         TOTAL TIME  7500.0      125.00      2.0833     8.68056E-02 2.37661E-04


end timestep


start timestep kper="26" kstp="1" mode="normal"


 OUTPUT CONTROL FOR STRESS PERIOD 26 IS REPEATED USING SETTINGS FROM A PREVIOUS STRESS PERIOD.

 REUSING CHDS FROM LAST STRESS PERIOD
 UBDSV1 SAVING     FLOW-JA-FACE ON UNIT   1022 AT TIME STEP      1, STRESS PERIOD     26
 UBDSV06 SAVING       DATA-SPDIS IN MODEL SERIES2GWF       PACKAGE NPF             CONNECTED TO MODEL SERIES2GWF       PACKAGE NPF              ON UNIT   1022 AT TIME STEP      1, STRESS PERIOD     26
 UBDSV06 SAVING         DATA-SAT IN MODEL SERIES2GWF       PACKAGE NPF             CONNECTED TO MODEL SERIES2GWF       PACKAGE NPF              ON UNIT   1022 AT TIME STEP      1, STRESS PERIOD     26
 UBDSV06 SAVING              CHD IN MODEL SERIES2GWF       PACKAGE SERIES2GWF      CONNECTED TO MODEL SERIES2GWF       PACKAGE CHD_0            ON UNIT   1022 AT TIME STEP      1, STRESS PERIOD     26

 HEAD WILL BE SAVED ON UNIT 1023 AT END OF TIME STEP    1, STRESS PERIOD   26


  VOLUME BUDGET FOR ENTIRE MODEL AT END OF TIME STEP    1, STRESS PERIOD  26
  ---------------------------------------------------------------------------------------------------

     CUMULATIVE VOLUME      L**3       RATES FOR THIS TIME STEP      L**3/T          PACKAGE NAME    
     ------------------                 ------------------------                     ----------------

           IN:                                      IN:
           ---                                      ---
                 CHD =        1775.2398                   CHD =          13.9458     CHD_0           

            TOTAL IN =        1775.2398              TOTAL IN =          13.9458

          OUT:                                     OUT:
          ----                                     ----
                 CHD =        1873.4975                   CHD =          14.0143     CHD_0           

           TOTAL OUT =        1873.4975             TOTAL OUT =          14.0143

            IN - OUT =          98.2576              IN - OUT =       6.8523E-02

 PERCENT DISCREPANCY =          -5.39     PERCENT DISCREPANCY =          -0.49




         TIME SUMMARY AT END OF TIME STEP    1 IN STRESS PERIOD   26
                    SECONDS     MINUTES      HOURS       DAYS        YEARS
                    -----------------------------------------------------------
   TIME STEP LENGTH  300.00      5.0000     8.33333E-02 3.47222E-03 9.50643E-06
 STRESS PERIOD TIME  300.00      5.0000     8.33333E-02 3.47222E-03 9.50643E-06
         TOTAL TIME  7800.0      130.00      2.1667     9.02778E-02 2.47167E-04


end timestep


start timestep kper="27" kstp="1" mode="normal"


 OUTPUT CONTROL FOR STRESS PERIOD 27 IS REPEATED USING SETTINGS FROM A PREVIOUS STRESS PERIOD.

 REUSING CHDS FROM LAST STRESS PERIOD
 UBDSV1 SAVING     FLOW-JA-FACE ON UNIT   1022 AT TIME STEP      1, STRESS PERIOD     27
 UBDSV06 SAVING       DATA-SPDIS IN MODEL SERIES2GWF       PACKAGE NPF             CONNECTED TO MODEL SERIES2GWF       PACKAGE NPF              ON UNIT   1022 AT TIME STEP      1, STRESS PERIOD     27
 UBDSV06 SAVING         DATA-SAT IN MODEL SERIES2GWF       PACKAGE NPF             CONNECTED TO MODEL SERIES2GWF       PACKAGE NPF              ON UNIT   1022 AT TIME STEP      1, STRESS PERIOD     27
 UBDSV06 SAVING              CHD IN MODEL SERIES2GWF       PACKAGE SERIES2GWF      CONNECTED TO MODEL SERIES2GWF       PACKAGE CHD_0            ON UNIT   1022 AT TIME STEP      1, STRESS PERIOD     27

 HEAD WILL BE SAVED ON UNIT 1023 AT END OF TIME STEP    1, STRESS PERIOD   27


  VOLUME BUDGET FOR ENTIRE MODEL AT END OF TIME STEP    1, STRESS PERIOD  27
  ---------------------------------------------------------------------------------------------------

     CUMULATIVE VOLUME      L**3       RATES FOR THIS TIME STEP      L**3/T          PACKAGE NAME    
     ------------------                 ------------------------                     ----------------

           IN:                                      IN:
           ---                                      ---
                 CHD =        1844.9792                   CHD =          13.9479     CHD_0           

            TOTAL IN =        1844.9792              TOTAL IN =          13.9479

          OUT:                                     OUT:
          ----                                     ----
                 CHD =        1943.5539                   CHD =          14.0113     CHD_0           

           TOTAL OUT =        1943.5539             TOTAL OUT =          14.0113

            IN - OUT =          98.5747              IN - OUT =       6.3420E-02

 PERCENT DISCREPANCY =          -5.20     PERCENT DISCREPANCY =          -0.45




         TIME SUMMARY AT END OF TIME STEP    1 IN STRESS PERIOD   27
                    SECONDS     MINUTES      HOURS       DAYS        YEARS
                    -----------------------------------------------------------
   TIME STEP LENGTH  300.00      5.0000     8.33333E-02 3.47222E-03 9.50643E-06
 STRESS PERIOD TIME  300.00      5.0000     8.33333E-02 3.47222E-03 9.50643E-06
         TOTAL TIME  8100.0      135.00      2.2500     9.37500E-02 2.56674E-04


end timestep


start timestep kper="28" kstp="1" mode="normal"


 OUTPUT CONTROL FOR STRESS PERIOD 28 IS REPEATED USING SETTINGS FROM A PREVIOUS STRESS PERIOD.

 REUSING CHDS FROM LAST STRESS PERIOD
 UBDSV1 SAVING     FLOW-JA-FACE ON UNIT   1022 AT TIME STEP      1, STRESS PERIOD     28
 UBDSV06 SAVING       DATA-SPDIS IN MODEL SERIES2GWF       PACKAGE NPF             CONNECTED TO MODEL SERIES2GWF       PACKAGE NPF              ON UNIT   1022 AT TIME STEP      1, STRESS PERIOD     28
 UBDSV06 SAVING         DATA-SAT IN MODEL SERIES2GWF       PACKAGE NPF             CONNECTED TO MODEL SERIES2GWF       PACKAGE NPF              ON UNIT   1022 AT TIME STEP      1, STRESS PERIOD     28
 UBDSV06 SAVING              CHD IN MODEL SERIES2GWF       PACKAGE SERIES2GWF      CONNECTED TO MODEL SERIES2GWF       PACKAGE CHD_0            ON UNIT   1022 AT TIME STEP      1, STRESS PERIOD     28

 HEAD WILL BE SAVED ON UNIT 1023 AT END OF TIME STEP    1, STRESS PERIOD   28


  VOLUME BUDGET FOR ENTIRE MODEL AT END OF TIME STEP    1, STRESS PERIOD  28
  ---------------------------------------------------------------------------------------------------

     CUMULATIVE VOLUME      L**3       RATES FOR THIS TIME STEP      L**3/T          PACKAGE NAME    
     ------------------                 ------------------------                     ----------------

           IN:                                      IN:
           ---                                      ---
                 CHD =        1914.7273                   CHD =          13.9496     CHD_0           

            TOTAL IN =        1914.7273              TOTAL IN =          13.9496

          OUT:                                     OUT:
          ----                                     ----
                 CHD =        2013.5975                   CHD =          14.0087     CHD_0           

           TOTAL OUT =        2013.5975             TOTAL OUT =          14.0087

            IN - OUT =          98.8702              IN - OUT =       5.9103E-02

 PERCENT DISCREPANCY =          -5.03     PERCENT DISCREPANCY =          -0.42




         TIME SUMMARY AT END OF TIME STEP    1 IN STRESS PERIOD   28
                    SECONDS     MINUTES      HOURS       DAYS        YEARS
                    -----------------------------------------------------------
   TIME STEP LENGTH  300.00      5.0000     8.33333E-02 3.47222E-03 9.50643E-06
 STRESS PERIOD TIME  300.00      5.0000     8.33333E-02 3.47222E-03 9.50643E-06
         TOTAL TIME  8400.0      140.00      2.3333     9.72222E-02 2.66180E-04


end timestep


start timestep kper="29" kstp="1" mode="normal"


 OUTPUT CONTROL FOR STRESS PERIOD 29 IS REPEATED USING SETTINGS FROM A PREVIOUS STRESS PERIOD.

 REUSING CHDS FROM LAST STRESS PERIOD
 UBDSV1 SAVING     FLOW-JA-FACE ON UNIT   1022 AT TIME STEP      1, STRESS PERIOD     29
 UBDSV06 SAVING       DATA-SPDIS IN MODEL SERIES2GWF       PACKAGE NPF             CONNECTED TO MODEL SERIES2GWF       PACKAGE NPF              ON UNIT   1022 AT TIME STEP      1, STRESS PERIOD     29
 UBDSV06 SAVING         DATA-SAT IN MODEL SERIES2GWF       PACKAGE NPF             CONNECTED TO MODEL SERIES2GWF       PACKAGE NPF              ON UNIT   1022 AT TIME STEP      1, STRESS PERIOD     29
 UBDSV06 SAVING              CHD IN MODEL SERIES2GWF       PACKAGE SERIES2GWF      CONNECTED TO MODEL SERIES2GWF       PACKAGE CHD_0            ON UNIT   1022 AT TIME STEP      1, STRESS PERIOD     29

 HEAD WILL BE SAVED ON UNIT 1023 AT END OF TIME STEP    1, STRESS PERIOD   29


  VOLUME BUDGET FOR ENTIRE MODEL AT END OF TIME STEP    1, STRESS PERIOD  29
  ---------------------------------------------------------------------------------------------------

     CUMULATIVE VOLUME      L**3       RATES FOR THIS TIME STEP      L**3/T          PACKAGE NAME    
     ------------------                 ------------------------                     ----------------

           IN:                                      IN:
           ---                                      ---
                 CHD =        1984.4861                   CHD =          13.9518     CHD_0           

[...]
 UBDSV06 SAVING              CHD IN MODEL SERIES2GWF       PACKAGE SERIES2GWF      CONNECTED TO MODEL SERIES2GWF       PACKAGE CHD_0            ON UNIT   1022 AT TIME STEP      1, STRESS PERIOD     56

 HEAD WILL BE SAVED ON UNIT 1023 AT END OF TIME STEP    1, STRESS PERIOD   56


  VOLUME BUDGET FOR ENTIRE MODEL AT END OF TIME STEP    1, STRESS PERIOD  56
  ---------------------------------------------------------------------------------------------------

     CUMULATIVE VOLUME      L**3       RATES FOR THIS TIME STEP      L**3/T          PACKAGE NAME    
     ------------------                 ------------------------                     ----------------

           IN:                                      IN:
           ---                                      ---
                 CHD =        3869.3800                   CHD =          13.9681     CHD_0           

            TOTAL IN =        3869.3800              TOTAL IN =          13.9681

          OUT:                                     OUT:
          ----                                     ----
                 CHD =        3972.3284                   CHD =          13.9817     CHD_0           

           TOTAL OUT =        3972.3284             TOTAL OUT =          13.9817

            IN - OUT =         102.9484              IN - OUT =       1.3572E-02

 PERCENT DISCREPANCY =          -2.63     PERCENT DISCREPANCY =          -0.10




         TIME SUMMARY AT END OF TIME STEP    1 IN STRESS PERIOD   56
                    SECONDS     MINUTES      HOURS       DAYS        YEARS
                    -----------------------------------------------------------
   TIME STEP LENGTH  300.00      5.0000     8.33333E-02 3.47222E-03 9.50643E-06
 STRESS PERIOD TIME  300.00      5.0000     8.33333E-02 3.47222E-03 9.50643E-06
         TOTAL TIME  16800.      280.00      4.6667     0.19444     5.32360E-04


end timestep


start timestep kper="57" kstp="1" mode="normal"


 OUTPUT CONTROL FOR STRESS PERIOD 57 IS REPEATED USING SETTINGS FROM A PREVIOUS STRESS PERIOD.

 REUSING CHDS FROM LAST STRESS PERIOD
 UBDSV1 SAVING     FLOW-JA-FACE ON UNIT   1022 AT TIME STEP      1, STRESS PERIOD     57
 UBDSV06 SAVING       DATA-SPDIS IN MODEL SERIES2GWF       PACKAGE NPF             CONNECTED TO MODEL SERIES2GWF       PACKAGE NPF              ON UNIT   1022 AT TIME STEP      1, STRESS PERIOD     57
 UBDSV06 SAVING         DATA-SAT IN MODEL SERIES2GWF       PACKAGE NPF             CONNECTED TO MODEL SERIES2GWF       PACKAGE NPF              ON UNIT   1022 AT TIME STEP      1, STRESS PERIOD     57
 UBDSV06 SAVING              CHD IN MODEL SERIES2GWF       PACKAGE SERIES2GWF      CONNECTED TO MODEL SERIES2GWF       PACKAGE CHD_0            ON UNIT   1022 AT TIME STEP      1, STRESS PERIOD     57

 HEAD WILL BE SAVED ON UNIT 1023 AT END OF TIME STEP    1, STRESS PERIOD   57


  VOLUME BUDGET FOR ENTIRE MODEL AT END OF TIME STEP    1, STRESS PERIOD  57
  ---------------------------------------------------------------------------------------------------

     CUMULATIVE VOLUME      L**3       RATES FOR THIS TIME STEP      L**3/T          PACKAGE NAME    
     ------------------                 ------------------------                     ----------------

           IN:                                      IN:
           ---                                      ---
                 CHD =        3939.2228                   CHD =          13.9686     CHD_0           

            TOTAL IN =        3939.2228              TOTAL IN =          13.9686

          OUT:                                     OUT:
          ----                                     ----
                 CHD =        4042.2338                   CHD =          13.9811     CHD_0           

           TOTAL OUT =        4042.2338             TOTAL OUT =          13.9811

            IN - OUT =         103.0110              IN - OUT =       1.2530E-02

 PERCENT DISCREPANCY =          -2.58     PERCENT DISCREPANCY =          -0.09




         TIME SUMMARY AT END OF TIME STEP    1 IN STRESS PERIOD   57
                    SECONDS     MINUTES      HOURS       DAYS        YEARS
                    -----------------------------------------------------------
   TIME STEP LENGTH  300.00      5.0000     8.33333E-02 3.47222E-03 9.50643E-06
 STRESS PERIOD TIME  300.00      5.0000     8.33333E-02 3.47222E-03 9.50643E-06
         TOTAL TIME  17100.      285.00      4.7500     0.19792     5.41866E-04


end timestep


start timestep kper="58" kstp="1" mode="normal"


 OUTPUT CONTROL FOR STRESS PERIOD 58 IS REPEATED USING SETTINGS FROM A PREVIOUS STRESS PERIOD.

 REUSING CHDS FROM LAST STRESS PERIOD
 UBDSV1 SAVING     FLOW-JA-FACE ON UNIT   1022 AT TIME STEP      1, STRESS PERIOD     58
 UBDSV06 SAVING       DATA-SPDIS IN MODEL SERIES2GWF       PACKAGE NPF             CONNECTED TO MODEL SERIES2GWF       PACKAGE NPF              ON UNIT   1022 AT TIME STEP      1, STRESS PERIOD     58
 UBDSV06 SAVING         DATA-SAT IN MODEL SERIES2GWF       PACKAGE NPF             CONNECTED TO MODEL SERIES2GWF       PACKAGE NPF              ON UNIT   1022 AT TIME STEP      1, STRESS PERIOD     58
 UBDSV06 SAVING              CHD IN MODEL SERIES2GWF       PACKAGE SERIES2GWF      CONNECTED TO MODEL SERIES2GWF       PACKAGE CHD_0            ON UNIT   1022 AT TIME STEP      1, STRESS PERIOD     58

 HEAD WILL BE SAVED ON UNIT 1023 AT END OF TIME STEP    1, STRESS PERIOD   58


  VOLUME BUDGET FOR ENTIRE MODEL AT END OF TIME STEP    1, STRESS PERIOD  58
  ---------------------------------------------------------------------------------------------------

     CUMULATIVE VOLUME      L**3       RATES FOR THIS TIME STEP      L**3/T          PACKAGE NAME    
     ------------------                 ------------------------                     ----------------

           IN:                                      IN:
           ---                                      ---
                 CHD =        4009.0664                   CHD =          13.9687     CHD_0           

            TOTAL IN =        4009.0664              TOTAL IN =          13.9687

          OUT:                                     OUT:
          ----                                     ----
                 CHD =        4112.1380                   CHD =          13.9808     CHD_0           

           TOTAL OUT =        4112.1380             TOTAL OUT =          13.9808

            IN - OUT =         103.0716              IN - OUT =       1.2114E-02

 PERCENT DISCREPANCY =          -2.54     PERCENT DISCREPANCY =          -0.09




         TIME SUMMARY AT END OF TIME STEP    1 IN STRESS PERIOD   58
                    SECONDS     MINUTES      HOURS       DAYS        YEARS
                    -----------------------------------------------------------
   TIME STEP LENGTH  300.00      5.0000     8.33333E-02 3.47222E-03 9.50643E-06
 STRESS PERIOD TIME  300.00      5.0000     8.33333E-02 3.47222E-03 9.50643E-06
         TOTAL TIME  17400.      290.00      4.8333     0.20139     5.51373E-04


end timestep


start timestep kper="59" kstp="1" mode="normal"


 OUTPUT CONTROL FOR STRESS PERIOD 59 IS REPEATED USING SETTINGS FROM A PREVIOUS STRESS PERIOD.

 REUSING CHDS FROM LAST STRESS PERIOD
 UBDSV1 SAVING     FLOW-JA-FACE ON UNIT   1022 AT TIME STEP      1, STRESS PERIOD     59
 UBDSV06 SAVING       DATA-SPDIS IN MODEL SERIES2GWF       PACKAGE NPF             CONNECTED TO MODEL SERIES2GWF       PACKAGE NPF              ON UNIT   1022 AT TIME STEP      1, STRESS PERIOD     59
 UBDSV06 SAVING         DATA-SAT IN MODEL SERIES2GWF       PACKAGE NPF             CONNECTED TO MODEL SERIES2GWF       PACKAGE NPF              ON UNIT   1022 AT TIME STEP      1, STRESS PERIOD     59
 UBDSV06 SAVING              CHD IN MODEL SERIES2GWF       PACKAGE SERIES2GWF      CONNECTED TO MODEL SERIES2GWF       PACKAGE CHD_0            ON UNIT   1022 AT TIME STEP      1, STRESS PERIOD     59

 HEAD WILL BE SAVED ON UNIT 1023 AT END OF TIME STEP    1, STRESS PERIOD   59


  VOLUME BUDGET FOR ENTIRE MODEL AT END OF TIME STEP    1, STRESS PERIOD  59
  ---------------------------------------------------------------------------------------------------

     CUMULATIVE VOLUME      L**3       RATES FOR THIS TIME STEP      L**3/T          PACKAGE NAME    
     ------------------                 ------------------------                     ----------------

           IN:                                      IN:
           ---                                      ---
                 CHD =        4078.9119                   CHD =          13.9691     CHD_0           

            TOTAL IN =        4078.9119              TOTAL IN =          13.9691

          OUT:                                     OUT:
          ----                                     ----
                 CHD =        4182.0395                   CHD =          13.9803     CHD_0           

           TOTAL OUT =        4182.0395             TOTAL OUT =          13.9803

            IN - OUT =         103.1276              IN - OUT =       1.1190E-02

 PERCENT DISCREPANCY =          -2.50     PERCENT DISCREPANCY =          -0.08




         TIME SUMMARY AT END OF TIME STEP    1 IN STRESS PERIOD   59
                    SECONDS     MINUTES      HOURS       DAYS        YEARS
                    -----------------------------------------------------------
   TIME STEP LENGTH  300.00      5.0000     8.33333E-02 3.47222E-03 9.50643E-06
 STRESS PERIOD TIME  300.00      5.0000     8.33333E-02 3.47222E-03 9.50643E-06
         TOTAL TIME  17700.      295.00      4.9167     0.20486     5.60879E-04


end timestep


start timestep kper="60" kstp="1" mode="normal"


 OUTPUT CONTROL FOR STRESS PERIOD 60 IS REPEATED USING SETTINGS FROM A PREVIOUS STRESS PERIOD.

 REUSING CHDS FROM LAST STRESS PERIOD
 UBDSV1 SAVING     FLOW-JA-FACE ON UNIT   1022 AT TIME STEP      1, STRESS PERIOD     60
 UBDSV06 SAVING       DATA-SPDIS IN MODEL SERIES2GWF       PACKAGE NPF             CONNECTED TO MODEL SERIES2GWF       PACKAGE NPF              ON UNIT   1022 AT TIME STEP      1, STRESS PERIOD     60
 UBDSV06 SAVING         DATA-SAT IN MODEL SERIES2GWF       PACKAGE NPF             CONNECTED TO MODEL SERIES2GWF       PACKAGE NPF              ON UNIT   1022 AT TIME STEP      1, STRESS PERIOD     60
 UBDSV06 SAVING              CHD IN MODEL SERIES2GWF       PACKAGE SERIES2GWF      CONNECTED TO MODEL SERIES2GWF       PACKAGE CHD_0            ON UNIT   1022 AT TIME STEP      1, STRESS PERIOD     60

 HEAD WILL BE SAVED ON UNIT 1023 AT END OF TIME STEP    1, STRESS PERIOD   60


  VOLUME BUDGET FOR ENTIRE MODEL AT END OF TIME STEP    1, STRESS PERIOD  60
  ---------------------------------------------------------------------------------------------------

     CUMULATIVE VOLUME      L**3       RATES FOR THIS TIME STEP      L**3/T          PACKAGE NAME    
     ------------------                 ------------------------                     ----------------

           IN:                                      IN:
           ---                                      ---
                 CHD =        4148.7592                   CHD =          13.9695     CHD_0           

            TOTAL IN =        4148.7592              TOTAL IN =          13.9695

          OUT:                                     OUT:
          ----                                     ----
                 CHD =        4251.9383                   CHD =          13.9798     CHD_0           

           TOTAL OUT =        4251.9383             TOTAL OUT =          13.9798

            IN - OUT =         103.1792              IN - OUT =       1.0318E-02

 PERCENT DISCREPANCY =          -2.46     PERCENT DISCREPANCY =          -0.07




         TIME SUMMARY AT END OF TIME STEP    1 IN STRESS PERIOD   60
                    SECONDS     MINUTES      HOURS       DAYS        YEARS
                    -----------------------------------------------------------
   TIME STEP LENGTH  300.00      5.0000     8.33333E-02 3.47222E-03 9.50643E-06
 STRESS PERIOD TIME  300.00      5.0000     8.33333E-02 3.47222E-03 9.50643E-06
         TOTAL TIME  18000.      300.00      5.0000     0.20833     5.70386E-04


end timestep


start timestep kper="61" kstp="1" mode="normal"


 OUTPUT CONTROL FOR STRESS PERIOD 61 IS REPEATED USING SETTINGS FROM A PREVIOUS STRESS PERIOD.

 REUSING CHDS FROM LAST STRESS PERIOD
 UBDSV1 SAVING     FLOW-JA-FACE ON UNIT   1022 AT TIME STEP      1, STRESS PERIOD     61
 UBDSV06 SAVING       DATA-SPDIS IN MODEL SERIES2GWF       PACKAGE NPF             CONNECTED TO MODEL SERIES2GWF       PACKAGE NPF              ON UNIT   1022 AT TIME STEP      1, STRESS PERIOD     61
 UBDSV06 SAVING         DATA-SAT IN MODEL SERIES2GWF       PACKAGE NPF             CONNECTED TO MODEL SERIES2GWF       PACKAGE NPF              ON UNIT   1022 AT TIME STEP      1, STRESS PERIOD     61
 UBDSV06 SAVING              CHD IN MODEL SERIES2GWF       PACKAGE SERIES2GWF      CONNECTED TO MODEL SERIES2GWF       PACKAGE CHD_0            ON UNIT   1022 AT TIME STEP      1, STRESS PERIOD     61

 HEAD WILL BE SAVED ON UNIT 1023 AT END OF TIME STEP    1, STRESS PERIOD   61


  VOLUME BUDGET FOR ENTIRE MODEL AT END OF TIME STEP    1, STRESS PERIOD  61
  ---------------------------------------------------------------------------------------------------

     CUMULATIVE VOLUME      L**3       RATES FOR THIS TIME STEP      L**3/T          PACKAGE NAME    
     ------------------                 ------------------------                     ----------------

           IN:                                      IN:
           ---                                      ---
                 CHD =        4218.6080                   CHD =          13.9698     CHD_0           

            TOTAL IN =        4218.6080              TOTAL IN =          13.9698

          OUT:                                     OUT:
          ----                                     ----
                 CHD =        4321.8348                   CHD =          13.9793     CHD_0           

           TOTAL OUT =        4321.8348             TOTAL OUT =          13.9793

            IN - OUT =         103.2268              IN - OUT =       9.5306E-03

 PERCENT DISCREPANCY =          -2.42     PERCENT DISCREPANCY =          -0.07




         TIME SUMMARY AT END OF TIME STEP    1 IN STRESS PERIOD   61
                    SECONDS     MINUTES      HOURS       DAYS        YEARS
                    -----------------------------------------------------------
   TIME STEP LENGTH  300.00      5.0000     8.33333E-02 3.47222E-03 9.50643E-06
 STRESS PERIOD TIME  300.00      5.0000     8.33333E-02 3.47222E-03 9.50643E-06
         TOTAL TIME  18300.      305.00      5.0833     0.21181     5.79892E-04


end timestep


start timestep kper="62" kstp="1" mode="normal"


 OUTPUT CONTROL FOR STRESS PERIOD 62 IS REPEATED USING SETTINGS FROM A PREVIOUS STRESS PERIOD.

 REUSING CHDS FROM LAST STRESS PERIOD
 UBDSV1 SAVING     FLOW-JA-FACE ON UNIT   1022 AT TIME STEP      1, STRESS PERIOD     62
 UBDSV06 SAVING       DATA-SPDIS IN MODEL SERIES2GWF       PACKAGE NPF             CONNECTED TO MODEL SERIES2GWF       PACKAGE NPF              ON UNIT   1022 AT TIME STEP      1, STRESS PERIOD     62
 UBDSV06 SAVING         DATA-SAT IN MODEL SERIES2GWF       PACKAGE NPF             CONNECTED TO MODEL SERIES2GWF       PACKAGE NPF              ON UNIT   1022 AT TIME STEP      1, STRESS PERIOD     62
 UBDSV06 SAVING              CHD IN MODEL SERIES2GWF       PACKAGE SERIES2GWF      CONNECTED TO MODEL SERIES2GWF       PACKAGE CHD_0            ON UNIT   1022 AT TIME STEP      1, STRESS PERIOD     62

 HEAD WILL BE SAVED ON UNIT 1023 AT END OF TIME STEP    1, STRESS PERIOD   62


  VOLUME BUDGET FOR ENTIRE MODEL AT END OF TIME STEP    1, STRESS PERIOD  62
  ---------------------------------------------------------------------------------------------------

     CUMULATIVE VOLUME      L**3       RATES FOR THIS TIME STEP      L**3/T          PACKAGE NAME    
     ------------------                 ------------------------                     ----------------

           IN:                                      IN:
           ---                                      ---
                 CHD =        4288.4592                   CHD =          13.9702     CHD_0           

            TOTAL IN =        4288.4592              TOTAL IN =          13.9702

          OUT:                                     OUT:
          ----                                     ----
                 CHD =        4391.7281                   CHD =          13.9786     CHD_0           

           TOTAL OUT =        4391.7281             TOTAL OUT =          13.9786

            IN - OUT =         103.2689              IN - OUT =       8.4253E-03

 PERCENT DISCREPANCY =          -2.38     PERCENT DISCREPANCY =          -0.06




         TIME SUMMARY AT END OF TIME STEP    1 IN STRESS PERIOD   62
                    SECONDS     MINUTES      HOURS       DAYS        YEARS
                    -----------------------------------------------------------
   TIME STEP LENGTH  300.00      5.0000     8.33333E-02 3.47222E-03 9.50643E-06
 STRESS PERIOD TIME  300.00      5.0000     8.33333E-02 3.47222E-03 9.50643E-06
         TOTAL TIME  18600.      310.00      5.1667     0.21528     5.89398E-04


end timestep


start timestep kper="63" kstp="1" mode="normal"


 OUTPUT CONTROL FOR STRESS PERIOD 63 IS REPEATED USING SETTINGS FROM A PREVIOUS STRESS PERIOD.

 REUSING CHDS FROM LAST STRESS PERIOD
 UBDSV1 SAVING     FLOW-JA-FACE ON UNIT   1022 AT TIME STEP      1, STRESS PERIOD     63
 UBDSV06 SAVING       DATA-SPDIS IN MODEL SERIES2GWF       PACKAGE NPF             CONNECTED TO MODEL SERIES2GWF       PACKAGE NPF              ON UNIT   1022 AT TIME STEP      1, STRESS PERIOD     63
 UBDSV06 SAVING         DATA-SAT IN MODEL SERIES2GWF       PACKAGE NPF             CONNECTED TO MODEL SERIES2GWF       PACKAGE NPF              ON UNIT   1022 AT TIME STEP      1, STRESS PERIOD     63
 UBDSV06 SAVING              CHD IN MODEL SERIES2GWF       PACKAGE SERIES2GWF      CONNECTED TO MODEL SERIES2GWF       PACKAGE CHD_0            ON UNIT   1022 AT TIME STEP      1, STRESS PERIOD     63

 HEAD WILL BE SAVED ON UNIT 1023 AT END OF TIME STEP    1, STRESS PERIOD   63


  VOLUME BUDGET FOR ENTIRE MODEL AT END OF TIME STEP    1, STRESS PERIOD  63
  ---------------------------------------------------------------------------------------------------

     CUMULATIVE VOLUME      L**3       RATES FOR THIS TIME STEP      L**3/T          PACKAGE NAME    
     ------------------                 ------------------------                     ----------------

           IN:                                      IN:
           ---                                      ---
                 CHD =        4358.3115                   CHD =          13.9705     CHD_0           

            TOTAL IN =        4358.3115              TOTAL IN =          13.9705

          OUT:                                     OUT:
          ----                                     ----
                 CHD =        4461.6195                   CHD =          13.9783     CHD_0           

           TOTAL OUT =        4461.6195             TOTAL OUT =          13.9783

            IN - OUT =         103.3080              IN - OUT =       7.8156E-03

 PERCENT DISCREPANCY =          -2.34     PERCENT DISCREPANCY =          -0.06




         TIME SUMMARY AT END OF TIME STEP    1 IN STRESS PERIOD   63
                    SECONDS     MINUTES      HOURS       DAYS        YEARS
                    -----------------------------------------------------------
   TIME STEP LENGTH  300.00      5.0000     8.33333E-02 3.47222E-03 9.50643E-06
 STRESS PERIOD TIME  300.00      5.0000     8.33333E-02 3.47222E-03 9.50643E-06
         TOTAL TIME  18900.      315.00      5.2500     0.21875     5.98905E-04


end timestep

