                                   MODFLOW 6
                U.S. GEOLOGICAL SURVEY MODULAR HYDROLOGIC MODEL
                          GROUNDWATER FLOW MODEL (GWF)
                            VERSION 6.2.1 02/18/2021

  MODFLOW 6 compiled May  6 2021 00:38:39 with GFORTRAN compiler (ver. 10.2.0)

This software has been approved for release by the U.S. Geological 
Survey (USGS). Although the software has been subjected to rigorous 
review, the USGS reserves the right to update the software as needed 
pursuant to further analysis and review. No warranty, expressed or 
implied, is made by the USGS or the U.S. Government as to the 
functionality of the software and related material nor shall the 
fact of release constitute any such warranty. Furthermore, the 
software is released on condition that neither the USGS nor the U.S. 
Government shall be held liable for any damages resulting from its 
authorized or unauthorized use. Also refer to the USGS Water 
Resources Software User Rights Notice for complete use, copyright, 
and distribution information.


System command used to initiate simulation:
/usr/local/bin/mf6

MODFLOW was compiled using uniform precision.

Real Variables
  KIND: 8
  TINY (smallest non-zero value):    2.225074-308
  HUGE (largest value):    1.797693+308
  PRECISION: 15
  BIT SIZE: 64

Integer Variables
  KIND: 4
  HUGE (largest value): 2147483647
  BIT SIZE: 32

Long Integer Variables
  KIND: 8
  HUGE (largest value): 9223372036854775807
  BIT SIZE: 64

Logical Variables
  KIND: 4
  BIT SIZE: 32


 OPENED /Users/Theo/GRWMODELS/python/Pennink-Model/cases/Series2/GWF/Series2Gwf.dis
 FILE TYPE:DIS6                   UNIT 1005   STATUS:OLD                 
 FORMAT:FORMATTED              ACCESS:SEQUENTIAL          
 ACTION:READ                


 OPENED /Users/Theo/GRWMODELS/python/Pennink-Model/cases/Series2/GWF/Series2Gwf.chd
 FILE TYPE:CHD6                   UNIT 1006   STATUS:OLD                 
 FORMAT:FORMATTED              ACCESS:SEQUENTIAL          
 ACTION:READ                


 OPENED /Users/Theo/GRWMODELS/python/Pennink-Model/cases/Series2/GWF/Series2Gwf.ic
 FILE TYPE:IC6                    UNIT 1007   STATUS:OLD                 
 FORMAT:FORMATTED              ACCESS:SEQUENTIAL          
 ACTION:READ                


 OPENED /Users/Theo/GRWMODELS/python/Pennink-Model/cases/Series2/GWF/Series2Gwf.npf
 FILE TYPE:NPF6                   UNIT 1008   STATUS:OLD                 
 FORMAT:FORMATTED              ACCESS:SEQUENTIAL          
 ACTION:READ                


 OPENED /Users/Theo/GRWMODELS/python/Pennink-Model/cases/Series2/GWF/Series2Gwf.oc
 FILE TYPE:OC6                    UNIT 1009   STATUS:OLD                 
 FORMAT:FORMATTED              ACCESS:SEQUENTIAL          
 ACTION:READ                

 NAMEFILE OPTIONS:
    FLOWS WILL BE SAVED TO BUDGET FILE SPECIFIED IN OUTPUT CONTROL

 DIS -- STRUCTURED GRID DISCRETIZATION PACKAGE, VERSION 2 : 3/27/2014 - INPUT READ FROM UNIT 1005


 # File generated by Flopy version 3.4.3 on 12/11/2023 at 22:38:12.
 PROCESSING DISCRETIZATION OPTIONS
    MODEL LENGTH UNIT IS CENTIMETERS
 END OF DISCRETIZATION OPTIONS
 PROCESSING DISCRETIZATION DIMENSIONS
    NLAY =      65
    NROW =       1
    NCOL =      65
 END OF DISCRETIZATION DIMENSIONS
 PROCESSING GRIDDATA

                     DELC =   1.800000    
 END PROCESSING GRIDDATA

 THE SPECIFIED IDOMAIN RESULTS IN A REDUCED NUMBER OF CELLS.
 NUMBER OF USER NODES: 4225
 NUMBER OF NODES IN SOLUTION: 3763



 NPF -- NODE PROPERTY FLOW PACKAGE, VERSION 1, 3/30/2015 INPUT READ FROM UNIT 1008


 # File generated by Flopy version 3.4.3 on 12/11/2023 at 22:38:12.
 PROCESSING NPF OPTIONS
    CELL-BY-CELL FLOW INFORMATION WILL BE SAVED TO BINARY FILE WHENEVER ICBCFL IS NOT ZERO.
    SPECIFIC DISCHARGE WILL BE CALCULATED AT CELL CENTERS AND WRITTEN TO DATA-SPDIS IN BUDGET FILE WHEN REQUESTED.
    SATURATION WILL BE WRITTEN TO DATA-SAT IN BUDGET FILE WHEN REQUESTED.
 END OF NPF OPTIONS

 CHD   -- CHD PACKAGE, VERSION 8, 2/22/2014 INPUT READ FROM UNIT 1006
 # File generated by Flopy version 3.4.3 on 12/11/2023 at 22:38:12.

 PROCESSING CHD OPTIONS
    FLOWS WILL BE SAVED TO BUDGET FILE SPECIFIED IN OUTPUT CONTROL
 END OF CHD OPTIONS

 PROCESSING CHD DIMENSIONS
    MAXBOUND =      24
 END OF CHD DIMENSIONS

 IC -- INITIAL CONDITIONS PACKAGE, VERSION 8, 3/28/2015 INPUT READ FROM UNIT 1007
 # File generated by Flopy version 3.4.3 on 12/11/2023 at 22:38:12.
 PROCESSING GRIDDATA
 END PROCESSING GRIDDATA
 PROCESSING GRIDDATA

                ICELLTYPE = 0
 END PROCESSING GRIDDATA
    BINARY GRID INFORMATION WILL BE WRITTEN TO:
      UNIT NUMBER: 1021
      FILE NAME: /Users/Theo/GRWMODELS/python/Pennink-Model/cases/Series2/GWF/Series2Gwf.dis.grb

 OPENED /Users/Theo/GRWMODELS/python/Pennink-Model/cases/Series2/GWF/Series2Gwf.dis.grb
 FILE TYPE:DATA(BINARY)   UNIT 1021   STATUS:REPLACE             
 FORMAT:UNFORMATTED            ACCESS:STREAM              
 ACTION:READWRITE           

      THE LAST TIME STEP WILL BE PRINTED
      THE LAST TIME STEP WILL BE PRINTED
 # File generated by Flopy version 3.4.3 on 12/11/2023 at 22:38:12.

 PROCESSING OC OPTIONS

    BUDGET INFORMATION WILL BE WRITTEN TO:
      UNIT NUMBER: 1022
      FILE NAME: /Users/Theo/GRWMODELS/python/Pennink-Model/cases/Series2/SIM/Series2Gwf.cbc

 OPENED /Users/Theo/GRWMODELS/python/Pennink-Model/cases/Series2/SIM/Series2Gwf.cbc
 FILE TYPE:DATA(BINARY)   UNIT 1022   STATUS:REPLACE             
 FORMAT:UNFORMATTED            ACCESS:STREAM              
 ACTION:READWRITE           

    HEAD INFORMATION WILL BE WRITTEN TO:
      UNIT NUMBER: 1023
      FILE NAME: /Users/Theo/GRWMODELS/python/Pennink-Model/cases/Series2/SIM/Series2Gwf.hds

 OPENED /Users/Theo/GRWMODELS/python/Pennink-Model/cases/Series2/SIM/Series2Gwf.hds
 FILE TYPE:DATA(BINARY)   UNIT 1023   STATUS:REPLACE             
 FORMAT:UNFORMATTED            ACCESS:STREAM              
 ACTION:READWRITE           

 END OF OC OPTIONS

start timestep kper="1" kstp="1" mode="normal"


 BEGIN READING OUTPUT CONTROL FOR STRESS PERIOD 1
      ALL TIME STEPS WILL BE SAVED
      ALL TIME STEPS WILL BE SAVED

 END READING OUTPUT CONTROL FOR STRESS PERIOD 1
 UBDSV1 SAVING     FLOW-JA-FACE ON UNIT   1022 AT TIME STEP      1, STRESS PERIOD      1
 UBDSV06 SAVING       DATA-SPDIS IN MODEL SERIES2GWF       PACKAGE NPF             CONNECTED TO MODEL SERIES2GWF       PACKAGE NPF              ON UNIT   1022 AT TIME STEP      1, STRESS PERIOD      1
 UBDSV06 SAVING         DATA-SAT IN MODEL SERIES2GWF       PACKAGE NPF             CONNECTED TO MODEL SERIES2GWF       PACKAGE NPF              ON UNIT   1022 AT TIME STEP      1, STRESS PERIOD      1
 UBDSV06 SAVING              CHD IN MODEL SERIES2GWF       PACKAGE SERIES2GWF      CONNECTED TO MODEL SERIES2GWF       PACKAGE CHD_0            ON UNIT   1022 AT TIME STEP      1, STRESS PERIOD      1

 HEAD WILL BE SAVED ON UNIT 1023 AT END OF TIME STEP    1, STRESS PERIOD    1


  VOLUME BUDGET FOR ENTIRE MODEL AT END OF TIME STEP    1, STRESS PERIOD   1
  ---------------------------------------------------------------------------------------------------

     CUMULATIVE VOLUME      L**3       RATES FOR THIS TIME STEP      L**3/T          PACKAGE NAME    
     ------------------                 ------------------------                     ----------------

           IN:                                      IN:
           ---                                      ---
                 CHD =          61.2367                   CHD =          12.2473     CHD_0           

            TOTAL IN =          61.2367              TOTAL IN =          12.2473

          OUT:                                     OUT:
          ----                                     ----
                 CHD =          81.0997                   CHD =          16.2199     CHD_0           

           TOTAL OUT =          81.0997             TOTAL OUT =          16.2199

            IN - OUT =          19.8630              IN - OUT =           3.9726

 PERCENT DISCREPANCY =         -27.91     PERCENT DISCREPANCY =         -27.91




         TIME SUMMARY AT END OF TIME STEP    1 IN STRESS PERIOD    1
                    SECONDS     MINUTES      HOURS       DAYS        YEARS
                    -----------------------------------------------------------
   TIME STEP LENGTH  300.00      5.0000     8.33333E-02 3.47222E-03 9.50643E-06
 STRESS PERIOD TIME  300.00      5.0000     8.33333E-02 3.47222E-03 9.50643E-06
         TOTAL TIME  300.00      5.0000     8.33333E-02 3.47222E-03 9.50643E-06


end timestep


start timestep kper="2" kstp="1" mode="normal"


 END OF FILE DETECTED IN OUTPUT CONTROL.
 CURRENT OUTPUT CONTROL SETTINGS WILL BE 
 REPEATED UNTIL THE END OF THE SIMULATION.

 OUTPUT CONTROL FOR STRESS PERIOD 2 IS REPEATED USING SETTINGS FROM A PREVIOUS STRESS PERIOD.

 REUSING CHDS FROM LAST STRESS PERIOD
 UBDSV1 SAVING     FLOW-JA-FACE ON UNIT   1022 AT TIME STEP      1, STRESS PERIOD      2
 UBDSV06 SAVING       DATA-SPDIS IN MODEL SERIES2GWF       PACKAGE NPF             CONNECTED TO MODEL SERIES2GWF       PACKAGE NPF              ON UNIT   1022 AT TIME STEP      1, STRESS PERIOD      2
 UBDSV06 SAVING         DATA-SAT IN MODEL SERIES2GWF       PACKAGE NPF             CONNECTED TO MODEL SERIES2GWF       PACKAGE NPF              ON UNIT   1022 AT TIME STEP      1, STRESS PERIOD      2
 UBDSV06 SAVING              CHD IN MODEL SERIES2GWF       PACKAGE SERIES2GWF      CONNECTED TO MODEL SERIES2GWF       PACKAGE CHD_0            ON UNIT   1022 AT TIME STEP      1, STRESS PERIOD      2

 HEAD WILL BE SAVED ON UNIT 1023 AT END OF TIME STEP    1, STRESS PERIOD    2


  VOLUME BUDGET FOR ENTIRE MODEL AT END OF TIME STEP    1, STRESS PERIOD   2
  ---------------------------------------------------------------------------------------------------

     CUMULATIVE VOLUME      L**3       RATES FOR THIS TIME STEP      L**3/T          PACKAGE NAME    
     ------------------                 ------------------------                     ----------------

           IN:                                      IN:
           ---                                      ---
                 CHD =         122.7504                   CHD =          12.3027     CHD_0           

            TOTAL IN =         122.7504              TOTAL IN =          12.3027

          OUT:                                     OUT:
          ----                                     ----
                 CHD =         162.0418                   CHD =          16.1884     CHD_0           

           TOTAL OUT =         162.0418             TOTAL OUT =          16.1884

            IN - OUT =          39.2915              IN - OUT =           3.8857

 PERCENT DISCREPANCY =         -27.59     PERCENT DISCREPANCY =         -27.28




         TIME SUMMARY AT END OF TIME STEP    1 IN STRESS PERIOD    2
                    SECONDS     MINUTES      HOURS       DAYS        YEARS
                    -----------------------------------------------------------
   TIME STEP LENGTH  300.00      5.0000     8.33333E-02 3.47222E-03 9.50643E-06
 STRESS PERIOD TIME  300.00      5.0000     8.33333E-02 3.47222E-03 9.50643E-06
         TOTAL TIME  600.00      10.000     0.16667     6.94444E-03 1.90129E-05


end timestep


start timestep kper="3" kstp="1" mode="normal"


 OUTPUT CONTROL FOR STRESS PERIOD 3 IS REPEATED USING SETTINGS FROM A PREVIOUS STRESS PERIOD.

 REUSING CHDS FROM LAST STRESS PERIOD
 UBDSV1 SAVING     FLOW-JA-FACE ON UNIT   1022 AT TIME STEP      1, STRESS PERIOD      3
 UBDSV06 SAVING       DATA-SPDIS IN MODEL SERIES2GWF       PACKAGE NPF             CONNECTED TO MODEL SERIES2GWF       PACKAGE NPF              ON UNIT   1022 AT TIME STEP      1, STRESS PERIOD      3
 UBDSV06 SAVING         DATA-SAT IN MODEL SERIES2GWF       PACKAGE NPF             CONNECTED TO MODEL SERIES2GWF       PACKAGE NPF              ON UNIT   1022 AT TIME STEP      1, STRESS PERIOD      3
 UBDSV06 SAVING              CHD IN MODEL SERIES2GWF       PACKAGE SERIES2GWF      CONNECTED TO MODEL SERIES2GWF       PACKAGE CHD_0            ON UNIT   1022 AT TIME STEP      1, STRESS PERIOD      3

 HEAD WILL BE SAVED ON UNIT 1023 AT END OF TIME STEP    1, STRESS PERIOD    3


  VOLUME BUDGET FOR ENTIRE MODEL AT END OF TIME STEP    1, STRESS PERIOD   3
  ---------------------------------------------------------------------------------------------------

     CUMULATIVE VOLUME      L**3       RATES FOR THIS TIME STEP      L**3/T          PACKAGE NAME    
     ------------------                 ------------------------                     ----------------

           IN:                                      IN:
           ---                                      ---
                 CHD =         184.6848                   CHD =          12.3869     CHD_0           

            TOTAL IN =         184.6848              TOTAL IN =          12.3869

          OUT:                                     OUT:
          ----                                     ----
                 CHD =         242.6894                   CHD =          16.1295     CHD_0           

           TOTAL OUT =         242.6894             TOTAL OUT =          16.1295

            IN - OUT =          58.0045              IN - OUT =           3.7426

 PERCENT DISCREPANCY =         -27.14     PERCENT DISCREPANCY =         -26.25




         TIME SUMMARY AT END OF TIME STEP    1 IN STRESS PERIOD    3
                    SECONDS     MINUTES      HOURS       DAYS        YEARS
                    -----------------------------------------------------------
   TIME STEP LENGTH  300.00      5.0000     8.33333E-02 3.47222E-03 9.50643E-06
 STRESS PERIOD TIME  300.00      5.0000     8.33333E-02 3.47222E-03 9.50643E-06
         TOTAL TIME  900.00      15.000     0.25000     1.04167E-02 2.85193E-05


end timestep


start timestep kper="4" kstp="1" mode="normal"


 OUTPUT CONTROL FOR STRESS PERIOD 4 IS REPEATED USING SETTINGS FROM A PREVIOUS STRESS PERIOD.

 REUSING CHDS FROM LAST STRESS PERIOD
 UBDSV1 SAVING     FLOW-JA-FACE ON UNIT   1022 AT TIME STEP      1, STRESS PERIOD      4
 UBDSV06 SAVING       DATA-SPDIS IN MODEL SERIES2GWF       PACKAGE NPF             CONNECTED TO MODEL SERIES2GWF       PACKAGE NPF              ON UNIT   1022 AT TIME STEP      1, STRESS PERIOD      4
 UBDSV06 SAVING         DATA-SAT IN MODEL SERIES2GWF       PACKAGE NPF             CONNECTED TO MODEL SERIES2GWF       PACKAGE NPF              ON UNIT   1022 AT TIME STEP      1, STRESS PERIOD      4
 UBDSV06 SAVING              CHD IN MODEL SERIES2GWF       PACKAGE SERIES2GWF      CONNECTED TO MODEL SERIES2GWF       PACKAGE CHD_0            ON UNIT   1022 AT TIME STEP      1, STRESS PERIOD      4

 HEAD WILL BE SAVED ON UNIT 1023 AT END OF TIME STEP    1, STRESS PERIOD    4


  VOLUME BUDGET FOR ENTIRE MODEL AT END OF TIME STEP    1, STRESS PERIOD   4
  ---------------------------------------------------------------------------------------------------

     CUMULATIVE VOLUME      L**3       RATES FOR THIS TIME STEP      L**3/T          PACKAGE NAME    
     ------------------                 ------------------------                     ----------------

           IN:                                      IN:
           ---                                      ---
                 CHD =         246.8140                   CHD =          12.4258     CHD_0           

            TOTAL IN =         246.8140              TOTAL IN =          12.4258

          OUT:                                     OUT:
          ----                                     ----
                 CHD =         323.1593                   CHD =          16.0940     CHD_0           

           TOTAL OUT =         323.1593             TOTAL OUT =          16.0940

            IN - OUT =          76.3453              IN - OUT =           3.6682

 PERCENT DISCREPANCY =         -26.79     PERCENT DISCREPANCY =         -25.72




         TIME SUMMARY AT END OF TIME STEP    1 IN STRESS PERIOD    4
                    SECONDS     MINUTES      HOURS       DAYS        YEARS
                    -----------------------------------------------------------
   TIME STEP LENGTH  300.00      5.0000     8.33333E-02 3.47222E-03 9.50643E-06
 STRESS PERIOD TIME  300.00      5.0000     8.33333E-02 3.47222E-03 9.50643E-06
         TOTAL TIME  1200.0      20.000     0.33333     1.38889E-02 3.80257E-05


end timestep


start timestep kper="5" kstp="1" mode="normal"


 OUTPUT CONTROL FOR STRESS PERIOD 5 IS REPEATED USING SETTINGS FROM A PREVIOUS STRESS PERIOD.

 REUSING CHDS FROM LAST STRESS PERIOD
 UBDSV1 SAVING     FLOW-JA-FACE ON UNIT   1022 AT TIME STEP      1, STRESS PERIOD      5
 UBDSV06 SAVING       DATA-SPDIS IN MODEL SERIES2GWF       PACKAGE NPF             CONNECTED TO MODEL SERIES2GWF       PACKAGE NPF              ON UNIT   1022 AT TIME STEP      1, STRESS PERIOD      5
 UBDSV06 SAVING         DATA-SAT IN MODEL SERIES2GWF       PACKAGE NPF             CONNECTED TO MODEL SERIES2GWF       PACKAGE NPF              ON UNIT   1022 AT TIME STEP      1, STRESS PERIOD      5
 UBDSV06 SAVING              CHD IN MODEL SERIES2GWF       PACKAGE SERIES2GWF      CONNECTED TO MODEL SERIES2GWF       PACKAGE CHD_0            ON UNIT   1022 AT TIME STEP      1, STRESS PERIOD      5

 HEAD WILL BE SAVED ON UNIT 1023 AT END OF TIME STEP    1, STRESS PERIOD    5


  VOLUME BUDGET FOR ENTIRE MODEL AT END OF TIME STEP    1, STRESS PERIOD   5
  ---------------------------------------------------------------------------------------------------

     CUMULATIVE VOLUME      L**3       RATES FOR THIS TIME STEP      L**3/T          PACKAGE NAME    
     ------------------                 ------------------------                     ----------------

           IN:                                      IN:
           ---                                      ---
                 CHD =         309.4953                   CHD =          12.5363     CHD_0           

            TOTAL IN =         309.4953              TOTAL IN =          12.5363

          OUT:                                     OUT:
          ----                                     ----
                 CHD =         403.0951                   CHD =          15.9871     CHD_0           

           TOTAL OUT =         403.0951             TOTAL OUT =          15.9871

            IN - OUT =          93.5998              IN - OUT =           3.4509

 PERCENT DISCREPANCY =         -26.27     PERCENT DISCREPANCY =         -24.20




         TIME SUMMARY AT END OF TIME STEP    1 IN STRESS PERIOD    5
                    SECONDS     MINUTES      HOURS       DAYS        YEARS
                    -----------------------------------------------------------
   TIME STEP LENGTH  300.00      5.0000     8.33333E-02 3.47222E-03 9.50643E-06
 STRESS PERIOD TIME  300.00      5.0000     8.33333E-02 3.47222E-03 9.50643E-06
         TOTAL TIME  1500.0      25.000     0.41667     1.73611E-02 4.75321E-05


end timestep


start timestep kper="6" kstp="1" mode="normal"


 OUTPUT CONTROL FOR STRESS PERIOD 6 IS REPEATED USING SETTINGS FROM A PREVIOUS STRESS PERIOD.

 REUSING CHDS FROM LAST STRESS PERIOD
 UBDSV1 SAVING     FLOW-JA-FACE ON UNIT   1022 AT TIME STEP      1, STRESS PERIOD      6
 UBDSV06 SAVING       DATA-SPDIS IN MODEL SERIES2GWF       PACKAGE NPF             CONNECTED TO MODEL SERIES2GWF       PACKAGE NPF              ON UNIT   1022 AT TIME STEP      1, STRESS PERIOD      6
 UBDSV06 SAVING         DATA-SAT IN MODEL SERIES2GWF       PACKAGE NPF             CONNECTED TO MODEL SERIES2GWF       PACKAGE NPF              ON UNIT   1022 AT TIME STEP      1, STRESS PERIOD      6
 UBDSV06 SAVING              CHD IN MODEL SERIES2GWF       PACKAGE SERIES2GWF      CONNECTED TO MODEL SERIES2GWF       PACKAGE CHD_0            ON UNIT   1022 AT TIME STEP      1, STRESS PERIOD      6

 HEAD WILL BE SAVED ON UNIT 1023 AT END OF TIME STEP    1, STRESS PERIOD    6


  VOLUME BUDGET FOR ENTIRE MODEL AT END OF TIME STEP    1, STRESS PERIOD   6
  ---------------------------------------------------------------------------------------------------

     CUMULATIVE VOLUME      L**3       RATES FOR THIS TIME STEP      L**3/T          PACKAGE NAME    
     ------------------                 ------------------------                     ----------------

           IN:                                      IN:
           ---                                      ---
                 CHD =         372.3087                   CHD =          12.5627     CHD_0           

            TOTAL IN =         372.3087              TOTAL IN =          12.5627

          OUT:                                     OUT:
          ----                                     ----
                 CHD =         482.8797                   CHD =          15.9569     CHD_0           

           TOTAL OUT =         482.8797             TOTAL OUT =          15.9569

            IN - OUT =         110.5711              IN - OUT =           3.3943

 PERCENT DISCREPANCY =         -25.86     PERCENT DISCREPANCY =         -23.80




         TIME SUMMARY AT END OF TIME STEP    1 IN STRESS PERIOD    6
                    SECONDS     MINUTES      HOURS       DAYS        YEARS
                    -----------------------------------------------------------
   TIME STEP LENGTH  300.00      5.0000     8.33333E-02 3.47222E-03 9.50643E-06
 STRESS PERIOD TIME  300.00      5.0000     8.33333E-02 3.47222E-03 9.50643E-06
         TOTAL TIME  1800.0      30.000     0.50000     2.08333E-02 5.70386E-05


end timestep


start timestep kper="7" kstp="1" mode="normal"


 OUTPUT CONTROL FOR STRESS PERIOD 7 IS REPEATED USING SETTINGS FROM A PREVIOUS STRESS PERIOD.

 REUSING CHDS FROM LAST STRESS PERIOD
 UBDSV1 SAVING     FLOW-JA-FACE ON UNIT   1022 AT TIME STEP      1, STRESS PERIOD      7
 UBDSV06 SAVING       DATA-SPDIS IN MODEL SERIES2GWF       PACKAGE NPF             CONNECTED TO MODEL SERIES2GWF       PACKAGE NPF              ON UNIT   1022 AT TIME STEP      1, STRESS PERIOD      7
 UBDSV06 SAVING         DATA-SAT IN MODEL SERIES2GWF       PACKAGE NPF             CONNECTED TO MODEL SERIES2GWF       PACKAGE NPF              ON UNIT   1022 AT TIME STEP      1, STRESS PERIOD      7
 UBDSV06 SAVING              CHD IN MODEL SERIES2GWF       PACKAGE SERIES2GWF      CONNECTED TO MODEL SERIES2GWF       PACKAGE CHD_0            ON UNIT   1022 AT TIME STEP      1, STRESS PERIOD      7

 HEAD WILL BE SAVED ON UNIT 1023 AT END OF TIME STEP    1, STRESS PERIOD    7


  VOLUME BUDGET FOR ENTIRE MODEL AT END OF TIME STEP    1, STRESS PERIOD   7
  ---------------------------------------------------------------------------------------------------

     CUMULATIVE VOLUME      L**3       RATES FOR THIS TIME STEP      L**3/T          PACKAGE NAME    
     ------------------                 ------------------------                     ----------------

           IN:                                      IN:
           ---                                      ---
                 CHD =         436.3791                   CHD =          12.8141     CHD_0           

            TOTAL IN =         436.3791              TOTAL IN =          12.8141

          OUT:                                     OUT:
          ----                                     ----
                 CHD =         561.1930                   CHD =          15.6627     CHD_0           

           TOTAL OUT =         561.1930             TOTAL OUT =          15.6627

            IN - OUT =         124.8139              IN - OUT =           2.8486

 PERCENT DISCREPANCY =         -25.02     PERCENT DISCREPANCY =         -20.01




         TIME SUMMARY AT END OF TIME STEP    1 IN STRESS PERIOD    7
                    SECONDS     MINUTES      HOURS       DAYS        YEARS
                    -----------------------------------------------------------
   TIME STEP LENGTH  300.00      5.0000     8.33333E-02 3.47222E-03 9.50643E-06
 STRESS PERIOD TIME  300.00      5.0000     8.33333E-02 3.47222E-03 9.50643E-06
         TOTAL TIME  2100.0      35.000     0.58333     2.43056E-02 6.65450E-05


end timestep


start timestep kper="8" kstp="1" mode="normal"


 OUTPUT CONTROL FOR STRESS PERIOD 8 IS REPEATED USING SETTINGS FROM A PREVIOUS STRESS PERIOD.

 REUSING CHDS FROM LAST STRESS PERIOD
 UBDSV1 SAVING     FLOW-JA-FACE ON UNIT   1022 AT TIME STEP      1, STRESS PERIOD      8
 UBDSV06 SAVING       DATA-SPDIS IN MODEL SERIES2GWF       PACKAGE NPF             CONNECTED TO MODEL SERIES2GWF       PACKAGE NPF              ON UNIT   1022 AT TIME STEP      1, STRESS PERIOD      8
 UBDSV06 SAVING         DATA-SAT IN MODEL SERIES2GWF       PACKAGE NPF             CONNECTED TO MODEL SERIES2GWF       PACKAGE NPF              ON UNIT   1022 AT TIME STEP      1, STRESS PERIOD      8
 UBDSV06 SAVING              CHD IN MODEL SERIES2GWF       PACKAGE SERIES2GWF      CONNECTED TO MODEL SERIES2GWF       PACKAGE CHD_0            ON UNIT   1022 AT TIME STEP      1, STRESS PERIOD      8

 HEAD WILL BE SAVED ON UNIT 1023 AT END OF TIME STEP    1, STRESS PERIOD    8


  VOLUME BUDGET FOR ENTIRE MODEL AT END OF TIME STEP    1, STRESS PERIOD   8
  ---------------------------------------------------------------------------------------------------

     CUMULATIVE VOLUME      L**3       RATES FOR THIS TIME STEP      L**3/T          PACKAGE NAME    
     ------------------                 ------------------------                     ----------------

           IN:                                      IN:
           ---                                      ---
                 CHD =         500.5246                   CHD =          12.8291     CHD_0           

            TOTAL IN =         500.5246              TOTAL IN =          12.8291

          OUT:                                     OUT:
          ----                                     ----
                 CHD =         639.3985                   CHD =          15.6411     CHD_0           

           TOTAL OUT =         639.3985             TOTAL OUT =          15.6411

            IN - OUT =         138.8739              IN - OUT =           2.8120

 PERCENT DISCREPANCY =         -24.37     PERCENT DISCREPANCY =         -19.75




         TIME SUMMARY AT END OF TIME STEP    1 IN STRESS PERIOD    8
                    SECONDS     MINUTES      HOURS       DAYS        YEARS
                    -----------------------------------------------------------
   TIME STEP LENGTH  300.00      5.0000     8.33333E-02 3.47222E-03 9.50643E-06
 STRESS PERIOD TIME  300.00      5.0000     8.33333E-02 3.47222E-03 9.50643E-06
         TOTAL TIME  2400.0      40.000     0.66667     2.77778E-02 7.60514E-05


end timestep


start timestep kper="9" kstp="1" mode="normal"


 OUTPUT CONTROL FOR STRESS PERIOD 9 IS REPEATED USING SETTINGS FROM A PREVIOUS STRESS PERIOD.

 REUSING CHDS FROM LAST STRESS PERIOD
 UBDSV1 SAVING     FLOW-JA-FACE ON UNIT   1022 AT TIME STEP      1, STRESS PERIOD      9
 UBDSV06 SAVING       DATA-SPDIS IN MODEL SERIES2GWF       PACKAGE NPF             CONNECTED TO MODEL SERIES2GWF       PACKAGE NPF              ON UNIT   1022 AT TIME STEP      1, STRESS PERIOD      9
 UBDSV06 SAVING         DATA-SAT IN MODEL SERIES2GWF       PACKAGE NPF             CONNECTED TO MODEL SERIES2GWF       PACKAGE NPF              ON UNIT   1022 AT TIME STEP      1, STRESS PERIOD      9
 UBDSV06 SAVING              CHD IN MODEL SERIES2GWF       PACKAGE SERIES2GWF      CONNECTED TO MODEL SERIES2GWF       PACKAGE CHD_0            ON UNIT   1022 AT TIME STEP      1, STRESS PERIOD      9

 HEAD WILL BE SAVED ON UNIT 1023 AT END OF TIME STEP    1, STRESS PERIOD    9


  VOLUME BUDGET FOR ENTIRE MODEL AT END OF TIME STEP    1, STRESS PERIOD   9
  ---------------------------------------------------------------------------------------------------

     CUMULATIVE VOLUME      L**3       RATES FOR THIS TIME STEP      L**3/T          PACKAGE NAME    
     ------------------                 ------------------------                     ----------------

           IN:                                      IN:
           ---                                      ---
                 CHD =         570.3732                   CHD =          13.9697     CHD_0           

            TOTAL IN =         570.3732              TOTAL IN =          13.9697

          OUT:                                     OUT:
          ----                                     ----
                 CHD =         709.3200                   CHD =          13.9843     CHD_0           

           TOTAL OUT =         709.3200             TOTAL OUT =          13.9843

            IN - OUT =         138.9469              IN - OUT =       1.4595E-02

 PERCENT DISCREPANCY =         -21.72     PERCENT DISCREPANCY =          -0.10




         TIME SUMMARY AT END OF TIME STEP    1 IN STRESS PERIOD    9
                    SECONDS     MINUTES      HOURS       DAYS        YEARS
                    -----------------------------------------------------------
   TIME STEP LENGTH  300.00      5.0000     8.33333E-02 3.47222E-03 9.50643E-06
 STRESS PERIOD TIME  300.00      5.0000     8.33333E-02 3.47222E-03 9.50643E-06
         TOTAL TIME  2700.0      45.000     0.75000     3.12500E-02 8.55578E-05


end timestep


start timestep kper="10" kstp="1" mode="normal"


 OUTPUT CONTROL FOR STRESS PERIOD 10 IS REPEATED USING SETTINGS FROM A PREVIOUS STRESS PERIOD.

 REUSING CHDS FROM LAST STRESS PERIOD
 UBDSV1 SAVING     FLOW-JA-FACE ON UNIT   1022 AT TIME STEP      1, STRESS PERIOD     10
 UBDSV06 SAVING       DATA-SPDIS IN MODEL SERIES2GWF       PACKAGE NPF             CONNECTED TO MODEL SERIES2GWF       PACKAGE NPF              ON UNIT   1022 AT TIME STEP      1, STRESS PERIOD     10
 UBDSV06 SAVING         DATA-SAT IN MODEL SERIES2GWF       PACKAGE NPF             CONNECTED TO MODEL SERIES2GWF       PACKAGE NPF              ON UNIT   1022 AT TIME STEP      1, STRESS PERIOD     10
 UBDSV06 SAVING              CHD IN MODEL SERIES2GWF       PACKAGE SERIES2GWF      CONNECTED TO MODEL SERIES2GWF       PACKAGE CHD_0            ON UNIT   1022 AT TIME STEP      1, STRESS PERIOD     10

 HEAD WILL BE SAVED ON UNIT 1023 AT END OF TIME STEP    1, STRESS PERIOD   10


  VOLUME BUDGET FOR ENTIRE MODEL AT END OF TIME STEP    1, STRESS PERIOD  10
  ---------------------------------------------------------------------------------------------------

     CUMULATIVE VOLUME      L**3       RATES FOR THIS TIME STEP      L**3/T          PACKAGE NAME    
     ------------------                 ------------------------                     ----------------

           IN:                                      IN:
           ---                                      ---
                 CHD =         640.2150                   CHD =          13.9684     CHD_0           

            TOTAL IN =         640.2150              TOTAL IN =          13.9684

          OUT:                                     OUT:
          ----                                     ----
                 CHD =         779.2381                   CHD =          13.9836     CHD_0           

           TOTAL OUT =         779.2381             TOTAL OUT =          13.9836

            IN - OUT =         139.0231              IN - OUT =       1.5241E-02

 PERCENT DISCREPANCY =         -19.59     PERCENT DISCREPANCY =          -0.11




         TIME SUMMARY AT END OF TIME STEP    1 IN STRESS PERIOD   10
                    SECONDS     MINUTES      HOURS       DAYS        YEARS
                    -----------------------------------------------------------
   TIME STEP LENGTH  300.00      5.0000     8.33333E-02 3.47222E-03 9.50643E-06
 STRESS PERIOD TIME  300.00      5.0000     8.33333E-02 3.47222E-03 9.50643E-06
         TOTAL TIME  3000.0      50.000     0.83333     3.47222E-02 9.50643E-05


end timestep


start timestep kper="11" kstp="1" mode="normal"


 OUTPUT CONTROL FOR STRESS PERIOD 11 IS REPEATED USING SETTINGS FROM A PREVIOUS STRESS PERIOD.

 REUSING CHDS FROM LAST STRESS PERIOD
 UBDSV1 SAVING     FLOW-JA-FACE ON UNIT   1022 AT TIME STEP      1, STRESS PERIOD     11
 UBDSV06 SAVING       DATA-SPDIS IN MODEL SERIES2GWF       PACKAGE NPF             CONNECTED TO MODEL SERIES2GWF       PACKAGE NPF              ON UNIT   1022 AT TIME STEP      1, STRESS PERIOD     11
 UBDSV06 SAVING         DATA-SAT IN MODEL SERIES2GWF       PACKAGE NPF             CONNECTED TO MODEL SERIES2GWF       PACKAGE NPF              ON UNIT   1022 AT TIME STEP      1, STRESS PERIOD     11
 UBDSV06 SAVING              CHD IN MODEL SERIES2GWF       PACKAGE SERIES2GWF      CONNECTED TO MODEL SERIES2GWF       PACKAGE CHD_0            ON UNIT   1022 AT TIME STEP      1, STRESS PERIOD     11

 HEAD WILL BE SAVED ON UNIT 1023 AT END OF TIME STEP    1, STRESS PERIOD   11


  VOLUME BUDGET FOR ENTIRE MODEL AT END OF TIME STEP    1, STRESS PERIOD  11
  ---------------------------------------------------------------------------------------------------

     CUMULATIVE VOLUME      L**3       RATES FOR THIS TIME STEP      L**3/T          PACKAGE NAME    
     ------------------                 ------------------------                     ----------------

           IN:                                      IN:
           ---                                      ---
                 CHD =         710.0561                   CHD =          13.9682     CHD_0           

            TOTAL IN =         710.0561              TOTAL IN =          13.9682

          OUT:                                     OUT:
          ----                                     ----
                 CHD =         849.1529                   CHD =          13.9830     CHD_0           

           TOTAL OUT =         849.1529             TOTAL OUT =          13.9830

            IN - OUT =         139.0968              IN - OUT =       1.4734E-02

 PERCENT DISCREPANCY =         -17.84     PERCENT DISCREPANCY =          -0.11




         TIME SUMMARY AT END OF TIME STEP    1 IN STRESS PERIOD   11
                    SECONDS     MINUTES      HOURS       DAYS        YEARS
                    -----------------------------------------------------------
   TIME STEP LENGTH  300.00      5.0000     8.33333E-02 3.47222E-03 9.50643E-06
 STRESS PERIOD TIME  300.00      5.0000     8.33333E-02 3.47222E-03 9.50643E-06
         TOTAL TIME  3300.0      55.000     0.91667     3.81944E-02 1.04571E-04


end timestep


start timestep kper="12" kstp="1" mode="normal"


 OUTPUT CONTROL FOR STRESS PERIOD 12 IS REPEATED USING SETTINGS FROM A PREVIOUS STRESS PERIOD.

 REUSING CHDS FROM LAST STRESS PERIOD
 UBDSV1 SAVING     FLOW-JA-FACE ON UNIT   1022 AT TIME STEP      1, STRESS PERIOD     12
 UBDSV06 SAVING       DATA-SPDIS IN MODEL SERIES2GWF       PACKAGE NPF             CONNECTED TO MODEL SERIES2GWF       PACKAGE NPF              ON UNIT   1022 AT TIME STEP      1, STRESS PERIOD     12
 UBDSV06 SAVING         DATA-SAT IN MODEL SERIES2GWF       PACKAGE NPF             CONNECTED TO MODEL SERIES2GWF       PACKAGE NPF              ON UNIT   1022 AT TIME STEP      1, STRESS PERIOD     12
 UBDSV06 SAVING              CHD IN MODEL SERIES2GWF       PACKAGE SERIES2GWF      CONNECTED TO MODEL SERIES2GWF       PACKAGE CHD_0            ON UNIT   1022 AT TIME STEP      1, STRESS PERIOD     12

 HEAD WILL BE SAVED ON UNIT 1023 AT END OF TIME STEP    1, STRESS PERIOD   12


  VOLUME BUDGET FOR ENTIRE MODEL AT END OF TIME STEP    1, STRESS PERIOD  12
  ---------------------------------------------------------------------------------------------------

     CUMULATIVE VOLUME      L**3       RATES FOR THIS TIME STEP      L**3/T          PACKAGE NAME    
     ------------------                 ------------------------                     ----------------

           IN:                                      IN:
           ---                                      ---
                 CHD =         779.8979                   CHD =          13.9683     CHD_0           

            TOTAL IN =         779.8979              TOTAL IN =          13.9683

          OUT:                                     OUT:
          ----                                     ----
                 CHD =         919.0642                   CHD =          13.9823     CHD_0           

           TOTAL OUT =         919.0642             TOTAL OUT =          13.9823

            IN - OUT =         139.1663              IN - OUT =       1.3907E-02

 PERCENT DISCREPANCY =         -16.38     PERCENT DISCREPANCY =          -0.10




         TIME SUMMARY AT END OF TIME STEP    1 IN STRESS PERIOD   12
                    SECONDS     MINUTES      HOURS       DAYS        YEARS
                    -----------------------------------------------------------
   TIME STEP LENGTH  300.00      5.0000     8.33333E-02 3.47222E-03 9.50643E-06
 STRESS PERIOD TIME  300.00      5.0000     8.33333E-02 3.47222E-03 9.50643E-06
         TOTAL TIME  3600.0      60.000      1.0000     4.16667E-02 1.14077E-04


end timestep


start timestep kper="13" kstp="1" mode="normal"


 OUTPUT CONTROL FOR STRESS PERIOD 13 IS REPEATED USING SETTINGS FROM A PREVIOUS STRESS PERIOD.

 REUSING CHDS FROM LAST STRESS PERIOD
 UBDSV1 SAVING     FLOW-JA-FACE ON UNIT   1022 AT TIME STEP      1, STRESS PERIOD     13
 UBDSV06 SAVING       DATA-SPDIS IN MODEL SERIES2GWF       PACKAGE NPF             CONNECTED TO MODEL SERIES2GWF       PACKAGE NPF              ON UNIT   1022 AT TIME STEP      1, STRESS PERIOD     13
 UBDSV06 SAVING         DATA-SAT IN MODEL SERIES2GWF       PACKAGE NPF             CONNECTED TO MODEL SERIES2GWF       PACKAGE NPF              ON UNIT   1022 AT TIME STEP      1, STRESS PERIOD     13
 UBDSV06 SAVING              CHD IN MODEL SERIES2GWF       PACKAGE SERIES2GWF      CONNECTED TO MODEL SERIES2GWF       PACKAGE CHD_0            ON UNIT   1022 AT TIME STEP      1, STRESS PERIOD     13

 HEAD WILL BE SAVED ON UNIT 1023 AT END OF TIME STEP    1, STRESS PERIOD   13


  VOLUME BUDGET FOR ENTIRE MODEL AT END OF TIME STEP    1, STRESS PERIOD  13
  ---------------------------------------------------------------------------------------------------

     CUMULATIVE VOLUME      L**3       RATES FOR THIS TIME STEP      L**3/T          PACKAGE NAME    
     ------------------                 ------------------------                     ----------------

           IN:                                      IN:
           ---                                      ---
                 CHD =         849.7408                   CHD =          13.9686     CHD_0           

            TOTAL IN =         849.7408              TOTAL IN =          13.9686

          OUT:                                     OUT:
          ----                                     ----
                 CHD =         988.9720                   CHD =          13.9816     CHD_0           

           TOTAL OUT =         988.9720             TOTAL OUT =          13.9816

            IN - OUT =         139.2311              IN - OUT =       1.2968E-02

 PERCENT DISCREPANCY =         -15.14     PERCENT DISCREPANCY =          -0.09




         TIME SUMMARY AT END OF TIME STEP    1 IN STRESS PERIOD   13
                    SECONDS     MINUTES      HOURS       DAYS        YEARS
                    -----------------------------------------------------------
   TIME STEP LENGTH  300.00      5.0000     8.33333E-02 3.47222E-03 9.50643E-06
 STRESS PERIOD TIME  300.00      5.0000     8.33333E-02 3.47222E-03 9.50643E-06
         TOTAL TIME  3900.0      65.000      1.0833     4.51389E-02 1.23584E-04


end timestep


start timestep kper="14" kstp="1" mode="normal"


 OUTPUT CONTROL FOR STRESS PERIOD 14 IS REPEATED USING SETTINGS FROM A PREVIOUS STRESS PERIOD.

 REUSING CHDS FROM LAST STRESS PERIOD
 UBDSV1 SAVING     FLOW-JA-FACE ON UNIT   1022 AT TIME STEP      1, STRESS PERIOD     14
 UBDSV06 SAVING       DATA-SPDIS IN MODEL SERIES2GWF       PACKAGE NPF             CONNECTED TO MODEL SERIES2GWF       PACKAGE NPF              ON UNIT   1022 AT TIME STEP      1, STRESS PERIOD     14
 UBDSV06 SAVING         DATA-SAT IN MODEL SERIES2GWF       PACKAGE NPF             CONNECTED TO MODEL SERIES2GWF       PACKAGE NPF              ON UNIT   1022 AT TIME STEP      1, STRESS PERIOD     14
 UBDSV06 SAVING              CHD IN MODEL SERIES2GWF       PACKAGE SERIES2GWF      CONNECTED TO MODEL SERIES2GWF       PACKAGE CHD_0            ON UNIT   1022 AT TIME STEP      1, STRESS PERIOD     14

 HEAD WILL BE SAVED ON UNIT 1023 AT END OF TIME STEP    1, STRESS PERIOD   14


  VOLUME BUDGET FOR ENTIRE MODEL AT END OF TIME STEP    1, STRESS PERIOD  14
  ---------------------------------------------------------------------------------------------------

     CUMULATIVE VOLUME      L**3       RATES FOR THIS TIME STEP      L**3/T          PACKAGE NAME    
     ------------------                 ------------------------                     ----------------

           IN:                                      IN:
           ---                                      ---
                 CHD =         919.5853                   CHD =          13.9689     CHD_0           

            TOTAL IN =         919.5853              TOTAL IN =          13.9689

          OUT:                                     OUT:
          ----                                     ----
                 CHD =        1058.8766                   CHD =          13.9809     CHD_0           

           TOTAL OUT =        1058.8766             TOTAL OUT =          13.9809

            IN - OUT =         139.2914              IN - OUT =       1.2047E-02

 PERCENT DISCREPANCY =         -14.08     PERCENT DISCREPANCY =          -0.09




         TIME SUMMARY AT END OF TIME STEP    1 IN STRESS PERIOD   14
                    SECONDS     MINUTES      HOURS       DAYS        YEARS
                    -----------------------------------------------------------
   TIME STEP LENGTH  300.00      5.0000     8.33333E-02 3.47222E-03 9.50643E-06
 STRESS PERIOD TIME  300.00      5.0000     8.33333E-02 3.47222E-03 9.50643E-06
         TOTAL TIME  4200.0      70.000      1.1667     4.86111E-02 1.33090E-04


end timestep


start timestep kper="15" kstp="1" mode="normal"


 OUTPUT CONTROL FOR STRESS PERIOD 15 IS REPEATED USING SETTINGS FROM A PREVIOUS STRESS PERIOD.

 REUSING CHDS FROM LAST STRESS PERIOD
 UBDSV1 SAVING     FLOW-JA-FACE ON UNIT   1022 AT TIME STEP      1, STRESS PERIOD     15
 UBDSV06 SAVING       DATA-SPDIS IN MODEL SERIES2GWF       PACKAGE NPF             CONNECTED TO MODEL SERIES2GWF       PACKAGE NPF              ON UNIT   1022 AT TIME STEP      1, STRESS PERIOD     15
 UBDSV06 SAVING         DATA-SAT IN MODEL SERIES2GWF       PACKAGE NPF             CONNECTED TO MODEL SERIES2GWF       PACKAGE NPF              ON UNIT   1022 AT TIME STEP      1, STRESS PERIOD     15
 UBDSV06 SAVING              CHD IN MODEL SERIES2GWF       PACKAGE SERIES2GWF      CONNECTED TO MODEL SERIES2GWF       PACKAGE CHD_0            ON UNIT   1022 AT TIME STEP      1, STRESS PERIOD     15

 HEAD WILL BE SAVED ON UNIT 1023 AT END OF TIME STEP    1, STRESS PERIOD   15


  VOLUME BUDGET FOR ENTIRE MODEL AT END OF TIME STEP    1, STRESS PERIOD  15
  ---------------------------------------------------------------------------------------------------

     CUMULATIVE VOLUME      L**3       RATES FOR THIS TIME STEP      L**3/T          PACKAGE NAME    
     ------------------                 ------------------------                     ----------------

           IN:                                      IN:
           ---                                      ---
                 CHD =         989.4312                   CHD =          13.9692     CHD_0           

            TOTAL IN =         989.4312              TOTAL IN =          13.9692

          OUT:                                     OUT:
          ----                                     ----
                 CHD =        1128.7784                   CHD =          13.9803     CHD_0           

           TOTAL OUT =        1128.7784             TOTAL OUT =          13.9803

            IN - OUT =         139.3471              IN - OUT =       1.1151E-02

 PERCENT DISCREPANCY =         -13.16     PERCENT DISCREPANCY =          -0.08




         TIME SUMMARY AT END OF TIME STEP    1 IN STRESS PERIOD   15
                    SECONDS     MINUTES      HOURS       DAYS        YEARS
                    -----------------------------------------------------------
   TIME STEP LENGTH  300.00      5.0000     8.33333E-02 3.47222E-03 9.50643E-06
 STRESS PERIOD TIME  300.00      5.0000     8.33333E-02 3.47222E-03 9.50643E-06
         TOTAL TIME  4500.0      75.000      1.2500     5.20833E-02 1.42596E-04


end timestep


start timestep kper="16" kstp="1" mode="normal"


 OUTPUT CONTROL FOR STRESS PERIOD 16 IS REPEATED USING SETTINGS FROM A PREVIOUS STRESS PERIOD.

 REUSING CHDS FROM LAST STRESS PERIOD
 UBDSV1 SAVING     FLOW-JA-FACE ON UNIT   1022 AT TIME STEP      1, STRESS PERIOD     16
 UBDSV06 SAVING       DATA-SPDIS IN MODEL SERIES2GWF       PACKAGE NPF             CONNECTED TO MODEL SERIES2GWF       PACKAGE NPF              ON UNIT   1022 AT TIME STEP      1, STRESS PERIOD     16
 UBDSV06 SAVING         DATA-SAT IN MODEL SERIES2GWF       PACKAGE NPF             CONNECTED TO MODEL SERIES2GWF       PACKAGE NPF              ON UNIT   1022 AT TIME STEP      1, STRESS PERIOD     16
 UBDSV06 SAVING              CHD IN MODEL SERIES2GWF       PACKAGE SERIES2GWF      CONNECTED TO MODEL SERIES2GWF       PACKAGE CHD_0            ON UNIT   1022 AT TIME STEP      1, STRESS PERIOD     16

 HEAD WILL BE SAVED ON UNIT 1023 AT END OF TIME STEP    1, STRESS PERIOD   16


  VOLUME BUDGET FOR ENTIRE MODEL AT END OF TIME STEP    1, STRESS PERIOD  16
  ---------------------------------------------------------------------------------------------------

     CUMULATIVE VOLUME      L**3       RATES FOR THIS TIME STEP      L**3/T          PACKAGE NAME    
     ------------------                 ------------------------                     ----------------

           IN:                                      IN:
           ---                                      ---
                 CHD =        1059.2795                   CHD =          13.9696     CHD_0           

            TOTAL IN =        1059.2795              TOTAL IN =          13.9696

          OUT:                                     OUT:
          ----                                     ----
                 CHD =        1198.6764                   CHD =          13.9796     CHD_0           

           TOTAL OUT =        1198.6764             TOTAL OUT =          13.9796

            IN - OUT =         139.3969              IN - OUT =       9.9595E-03

 PERCENT DISCREPANCY =         -12.35     PERCENT DISCREPANCY =          -0.07




         TIME SUMMARY AT END OF TIME STEP    1 IN STRESS PERIOD   16
                    SECONDS     MINUTES      HOURS       DAYS        YEARS
                    -----------------------------------------------------------
   TIME STEP LENGTH  300.00      5.0000     8.33333E-02 3.47222E-03 9.50643E-06
 STRESS PERIOD TIME  300.00      5.0000     8.33333E-02 3.47222E-03 9.50643E-06
         TOTAL TIME  4800.0      80.000      1.3333     5.55556E-02 1.52103E-04


end timestep


start timestep kper="17" kstp="1" mode="normal"


 OUTPUT CONTROL FOR STRESS PERIOD 17 IS REPEATED USING SETTINGS FROM A PREVIOUS STRESS PERIOD.

 REUSING CHDS FROM LAST STRESS PERIOD
 UBDSV1 SAVING     FLOW-JA-FACE ON UNIT   1022 AT TIME STEP      1, STRESS PERIOD     17
 UBDSV06 SAVING       DATA-SPDIS IN MODEL SERIES2GWF       PACKAGE NPF             CONNECTED TO MODEL SERIES2GWF       PACKAGE NPF              ON UNIT   1022 AT TIME STEP      1, STRESS PERIOD     17
 UBDSV06 SAVING         DATA-SAT IN MODEL SERIES2GWF       PACKAGE NPF             CONNECTED TO MODEL SERIES2GWF       PACKAGE NPF              ON UNIT   1022 AT TIME STEP      1, STRESS PERIOD     17
 UBDSV06 SAVING              CHD IN MODEL SERIES2GWF       PACKAGE SERIES2GWF      CONNECTED TO MODEL SERIES2GWF       PACKAGE CHD_0            ON UNIT   1022 AT TIME STEP      1, STRESS PERIOD     17

 HEAD WILL BE SAVED ON UNIT 1023 AT END OF TIME STEP    1, STRESS PERIOD   17


  VOLUME BUDGET FOR ENTIRE MODEL AT END OF TIME STEP    1, STRESS PERIOD  17
  ---------------------------------------------------------------------------------------------------

     CUMULATIVE VOLUME      L**3       RATES FOR THIS TIME STEP      L**3/T          PACKAGE NAME    
     ------------------                 ------------------------                     ----------------

           IN:                                      IN:
           ---                                      ---
                 CHD =        1129.1291                   CHD =          13.9699     CHD_0           

            TOTAL IN =        1129.1291              TOTAL IN =          13.9699

          OUT:                                     OUT:
          ----                                     ----
                 CHD =        1268.5721                   CHD =          13.9791     CHD_0           

           TOTAL OUT =        1268.5721             TOTAL OUT =          13.9791

            IN - OUT =         139.4430              IN - OUT =       9.2087E-03

 PERCENT DISCREPANCY =         -11.63     PERCENT DISCREPANCY =          -0.07




         TIME SUMMARY AT END OF TIME STEP    1 IN STRESS PERIOD   17
                    SECONDS     MINUTES      HOURS       DAYS        YEARS
                    -----------------------------------------------------------
   TIME STEP LENGTH  300.00      5.0000     8.33333E-02 3.47222E-03 9.50643E-06
 STRESS PERIOD TIME  300.00      5.0000     8.33333E-02 3.47222E-03 9.50643E-06
         TOTAL TIME  5100.0      85.000      1.4167     5.90278E-02 1.61609E-04


end timestep


start timestep kper="18" kstp="1" mode="normal"


 OUTPUT CONTROL FOR STRESS PERIOD 18 IS REPEATED USING SETTINGS FROM A PREVIOUS STRESS PERIOD.

 REUSING CHDS FROM LAST STRESS PERIOD
 UBDSV1 SAVING     FLOW-JA-FACE ON UNIT   1022 AT TIME STEP      1, STRESS PERIOD     18
 UBDSV06 SAVING       DATA-SPDIS IN MODEL SERIES2GWF       PACKAGE NPF             CONNECTED TO MODEL SERIES2GWF       PACKAGE NPF              ON UNIT   1022 AT TIME STEP      1, STRESS PERIOD     18
 UBDSV06 SAVING         DATA-SAT IN MODEL SERIES2GWF       PACKAGE NPF             CONNECTED TO MODEL SERIES2GWF       PACKAGE NPF              ON UNIT   1022 AT TIME STEP      1, STRESS PERIOD     18
 UBDSV06 SAVING              CHD IN MODEL SERIES2GWF       PACKAGE SERIES2GWF      CONNECTED TO MODEL SERIES2GWF       PACKAGE CHD_0            ON UNIT   1022 AT TIME STEP      1, STRESS PERIOD     18

 HEAD WILL BE SAVED ON UNIT 1023 AT END OF TIME STEP    1, STRESS PERIOD   18


  VOLUME BUDGET FOR ENTIRE MODEL AT END OF TIME STEP    1, STRESS PERIOD  18
  ---------------------------------------------------------------------------------------------------

     CUMULATIVE VOLUME      L**3       RATES FOR THIS TIME STEP      L**3/T          PACKAGE NAME    
     ------------------                 ------------------------                     ----------------

           IN:                                      IN:
           ---                                      ---
                 CHD =        1198.9805                   CHD =          13.9703     CHD_0           

            TOTAL IN =        1198.9805              TOTAL IN =          13.9703

          OUT:                                     OUT:
          ----                                     ----
                 CHD =        1338.4650                   CHD =          13.9786     CHD_0           

           TOTAL OUT =        1338.4650             TOTAL OUT =          13.9786

            IN - OUT =         139.4845              IN - OUT =       8.3101E-03

 PERCENT DISCREPANCY =         -10.99     PERCENT DISCREPANCY =          -0.06




         TIME SUMMARY AT END OF TIME STEP    1 IN STRESS PERIOD   18
                    SECONDS     MINUTES      HOURS       DAYS        YEARS
                    -----------------------------------------------------------
   TIME STEP LENGTH  300.00      5.0000     8.33333E-02 3.47222E-03 9.50643E-06
 STRESS PERIOD TIME  300.00      5.0000     8.33333E-02 3.47222E-03 9.50643E-06
         TOTAL TIME  5400.0      90.000      1.5000     6.25000E-02 1.71116E-04


end timestep


start timestep kper="19" kstp="1" mode="normal"


 OUTPUT CONTROL FOR STRESS PERIOD 19 IS REPEATED USING SETTINGS FROM A PREVIOUS STRESS PERIOD.

 REUSING CHDS FROM LAST STRESS PERIOD
 UBDSV1 SAVING     FLOW-JA-FACE ON UNIT   1022 AT TIME STEP      1, STRESS PERIOD     19
 UBDSV06 SAVING       DATA-SPDIS IN MODEL SERIES2GWF       PACKAGE NPF             CONNECTED TO MODEL SERIES2GWF       PACKAGE NPF              ON UNIT   1022 AT TIME STEP      1, STRESS PERIOD     19
 UBDSV06 SAVING         DATA-SAT IN MODEL SERIES2GWF       PACKAGE NPF             CONNECTED TO MODEL SERIES2GWF       PACKAGE NPF              ON UNIT   1022 AT TIME STEP      1, STRESS PERIOD     19
 UBDSV06 SAVING              CHD IN MODEL SERIES2GWF       PACKAGE SERIES2GWF      CONNECTED TO MODEL SERIES2GWF       PACKAGE CHD_0            ON UNIT   1022 AT TIME STEP      1, STRESS PERIOD     19

 HEAD WILL BE SAVED ON UNIT 1023 AT END OF TIME STEP    1, STRESS PERIOD   19


  VOLUME BUDGET FOR ENTIRE MODEL AT END OF TIME STEP    1, STRESS PERIOD  19
  ---------------------------------------------------------------------------------------------------

     CUMULATIVE VOLUME      L**3       RATES FOR THIS TIME STEP      L**3/T          PACKAGE NAME    
     ------------------                 ------------------------                     ----------------

           IN:                                      IN:
           ---                                      ---
                 CHD =        1268.8328                   CHD =          13.9705     CHD_0           

            TOTAL IN =        1268.8328              TOTAL IN =          13.9705

          OUT:                                     OUT:
          ----                                     ----
                 CHD =        1408.3567                   CHD =          13.9783     CHD_0           

           TOTAL OUT =        1408.3567             TOTAL OUT =          13.9783

            IN - OUT =         139.5238              IN - OUT =       7.8644E-03

 PERCENT DISCREPANCY =         -10.42     PERCENT DISCREPANCY =          -0.06




         TIME SUMMARY AT END OF TIME STEP    1 IN STRESS PERIOD   19
                    SECONDS     MINUTES      HOURS       DAYS        YEARS
                    -----------------------------------------------------------
   TIME STEP LENGTH  300.00      5.0000     8.33333E-02 3.47222E-03 9.50643E-06
 STRESS PERIOD TIME  300.00      5.0000     8.33333E-02 3.47222E-03 9.50643E-06
         TOTAL TIME  5700.0      95.000      1.5833     6.59722E-02 1.80622E-04


end timestep


start timestep kper="20" kstp="1" mode="normal"


 OUTPUT CONTROL FOR STRESS PERIOD 20 IS REPEATED USING SETTINGS FROM A PREVIOUS STRESS PERIOD.

 REUSING CHDS FROM LAST STRESS PERIOD
 UBDSV1 SAVING     FLOW-JA-FACE ON UNIT   1022 AT TIME STEP      1, STRESS PERIOD     20
 UBDSV06 SAVING       DATA-SPDIS IN MODEL SERIES2GWF       PACKAGE NPF             CONNECTED TO MODEL SERIES2GWF       PACKAGE NPF              ON UNIT   1022 AT TIME STEP      1, STRESS PERIOD     20
 UBDSV06 SAVING         DATA-SAT IN MODEL SERIES2GWF       PACKAGE NPF             CONNECTED TO MODEL SERIES2GWF       PACKAGE NPF              ON UNIT   1022 AT TIME STEP      1, STRESS PERIOD     20
 UBDSV06 SAVING              CHD IN MODEL SERIES2GWF       PACKAGE SERIES2GWF      CONNECTED TO MODEL SERIES2GWF       PACKAGE CHD_0            ON UNIT   1022 AT TIME STEP      1, STRESS PERIOD     20

 HEAD WILL BE SAVED ON UNIT 1023 AT END OF TIME STEP    1, STRESS PERIOD   20


  VOLUME BUDGET FOR ENTIRE MODEL AT END OF TIME STEP    1, STRESS PERIOD  20
  ---------------------------------------------------------------------------------------------------

     CUMULATIVE VOLUME      L**3       RATES FOR THIS TIME STEP      L**3/T          PACKAGE NAME    
     ------------------                 ------------------------                     ----------------

           IN:                                      IN:
           ---                                      ---
                 CHD =        1338.6864                   CHD =          13.9707     CHD_0           

            TOTAL IN =        1338.6864              TOTAL IN =          13.9707

          OUT:                                     OUT:
          ----                                     ----
                 CHD =        1478.2464                   CHD =          13.9780     CHD_0           

           TOTAL OUT =        1478.2464             TOTAL OUT =          13.9780

            IN - OUT =         139.5600              IN - OUT =       7.2379E-03

 PERCENT DISCREPANCY =          -9.91     PERCENT DISCREPANCY =          -0.05




         TIME SUMMARY AT END OF TIME STEP    1 IN STRESS PERIOD   20
                    SECONDS     MINUTES      HOURS       DAYS        YEARS
                    -----------------------------------------------------------
   TIME STEP LENGTH  300.00      5.0000     8.33333E-02 3.47222E-03 9.50643E-06
 STRESS PERIOD TIME  300.00      5.0000     8.33333E-02 3.47222E-03 9.50643E-06
         TOTAL TIME  6000.0      100.00      1.6667     6.94444E-02 1.90129E-04


end timestep


start timestep kper="21" kstp="1" mode="normal"


 OUTPUT CONTROL FOR STRESS PERIOD 21 IS REPEATED USING SETTINGS FROM A PREVIOUS STRESS PERIOD.

 REUSING CHDS FROM LAST STRESS PERIOD
 UBDSV1 SAVING     FLOW-JA-FACE ON UNIT   1022 AT TIME STEP      1, STRESS PERIOD     21
 UBDSV06 SAVING       DATA-SPDIS IN MODEL SERIES2GWF       PACKAGE NPF             CONNECTED TO MODEL SERIES2GWF       PACKAGE NPF              ON UNIT   1022 AT TIME STEP      1, STRESS PERIOD     21
 UBDSV06 SAVING         DATA-SAT IN MODEL SERIES2GWF       PACKAGE NPF             CONNECTED TO MODEL SERIES2GWF       PACKAGE NPF              ON UNIT   1022 AT TIME STEP      1, STRESS PERIOD     21
 UBDSV06 SAVING              CHD IN MODEL SERIES2GWF       PACKAGE SERIES2GWF      CONNECTED TO MODEL SERIES2GWF       PACKAGE CHD_0            ON UNIT   1022 AT TIME STEP      1, STRESS PERIOD     21

 HEAD WILL BE SAVED ON UNIT 1023 AT END OF TIME STEP    1, STRESS PERIOD   21


  VOLUME BUDGET FOR ENTIRE MODEL AT END OF TIME STEP    1, STRESS PERIOD  21
  ---------------------------------------------------------------------------------------------------

     CUMULATIVE VOLUME      L**3       RATES FOR THIS TIME STEP      L**3/T          PACKAGE NAME    
     ------------------                 ------------------------                     ----------------

           IN:                                      IN:
           ---                                      ---
                 CHD =        1408.5411                   CHD =          13.9709     CHD_0           

            TOTAL IN =        1408.5411              TOTAL IN =          13.9709

          OUT:                                     OUT:
          ----                                     ----
                 CHD =        1548.1345                   CHD =          13.9776     CHD_0           

           TOTAL OUT =        1548.1345             TOTAL OUT =          13.9776

            IN - OUT =         139.5934              IN - OUT =       6.6779E-03

 PERCENT DISCREPANCY =          -9.44     PERCENT DISCREPANCY =          -0.05




         TIME SUMMARY AT END OF TIME STEP    1 IN STRESS PERIOD   21
                    SECONDS     MINUTES      HOURS       DAYS        YEARS
                    -----------------------------------------------------------
   TIME STEP LENGTH  300.00      5.0000     8.33333E-02 3.47222E-03 9.50643E-06
 STRESS PERIOD TIME  300.00      5.0000     8.33333E-02 3.47222E-03 9.50643E-06
         TOTAL TIME  6300.0      105.00      1.7500     7.29167E-02 1.99635E-04


end timestep


start timestep kper="22" kstp="1" mode="normal"


 OUTPUT CONTROL FOR STRESS PERIOD 22 IS REPEATED USING SETTINGS FROM A PREVIOUS STRESS PERIOD.

 REUSING CHDS FROM LAST STRESS PERIOD
 UBDSV1 SAVING     FLOW-JA-FACE ON UNIT   1022 AT TIME STEP      1, STRESS PERIOD     22
 UBDSV06 SAVING       DATA-SPDIS IN MODEL SERIES2GWF       PACKAGE NPF             CONNECTED TO MODEL SERIES2GWF       PACKAGE NPF              ON UNIT   1022 AT TIME STEP      1, STRESS PERIOD     22
 UBDSV06 SAVING         DATA-SAT IN MODEL SERIES2GWF       PACKAGE NPF             CONNECTED TO MODEL SERIES2GWF       PACKAGE NPF              ON UNIT   1022 AT TIME STEP      1, STRESS PERIOD     22
 UBDSV06 SAVING              CHD IN MODEL SERIES2GWF       PACKAGE SERIES2GWF      CONNECTED TO MODEL SERIES2GWF       PACKAGE CHD_0            ON UNIT   1022 AT TIME STEP      1, STRESS PERIOD     22

 HEAD WILL BE SAVED ON UNIT 1023 AT END OF TIME STEP    1, STRESS PERIOD   22


  VOLUME BUDGET FOR ENTIRE MODEL AT END OF TIME STEP    1, STRESS PERIOD  22
  ---------------------------------------------------------------------------------------------------

     CUMULATIVE VOLUME      L**3       RATES FOR THIS TIME STEP      L**3/T          PACKAGE NAME    
     ------------------                 ------------------------                     ----------------

           IN:                                      IN:
           ---                                      ---
                 CHD =        1478.3967                   CHD =          13.9711     CHD_0           

            TOTAL IN =        1478.3967              TOTAL IN =          13.9711

          OUT:                                     OUT:
          ----                                     ----
                 CHD =        1618.0212                   CHD =          13.9773     CHD_0           

           TOTAL OUT =        1618.0212             TOTAL OUT =          13.9773

            IN - OUT =         139.6244              IN - OUT =       6.2022E-03

 PERCENT DISCREPANCY =          -9.02     PERCENT DISCREPANCY =          -0.04




         TIME SUMMARY AT END OF TIME STEP    1 IN STRESS PERIOD   22
                    SECONDS     MINUTES      HOURS       DAYS        YEARS
                    -----------------------------------------------------------
   TIME STEP LENGTH  300.00      5.0000     8.33333E-02 3.47222E-03 9.50643E-06
 STRESS PERIOD TIME  300.00      5.0000     8.33333E-02 3.47222E-03 9.50643E-06
         TOTAL TIME  6600.0      110.00      1.8333     7.63889E-02 2.09141E-04


end timestep


start timestep kper="23" kstp="1" mode="normal"


 OUTPUT CONTROL FOR STRESS PERIOD 23 IS REPEATED USING SETTINGS FROM A PREVIOUS STRESS PERIOD.

 REUSING CHDS FROM LAST STRESS PERIOD
 UBDSV1 SAVING     FLOW-JA-FACE ON UNIT   1022 AT TIME STEP      1, STRESS PERIOD     23
 UBDSV06 SAVING       DATA-SPDIS IN MODEL SERIES2GWF       PACKAGE NPF             CONNECTED TO MODEL SERIES2GWF       PACKAGE NPF              ON UNIT   1022 AT TIME STEP      1, STRESS PERIOD     23
 UBDSV06 SAVING         DATA-SAT IN MODEL SERIES2GWF       PACKAGE NPF             CONNECTED TO MODEL SERIES2GWF       PACKAGE NPF              ON UNIT   1022 AT TIME STEP      1, STRESS PERIOD     23
 UBDSV06 SAVING              CHD IN MODEL SERIES2GWF       PACKAGE SERIES2GWF      CONNECTED TO MODEL SERIES2GWF       PACKAGE CHD_0            ON UNIT   1022 AT TIME STEP      1, STRESS PERIOD     23

 HEAD WILL BE SAVED ON UNIT 1023 AT END OF TIME STEP    1, STRESS PERIOD   23


  VOLUME BUDGET FOR ENTIRE MODEL AT END OF TIME STEP    1, STRESS PERIOD  23
  ---------------------------------------------------------------------------------------------------

     CUMULATIVE VOLUME      L**3       RATES FOR THIS TIME STEP      L**3/T          PACKAGE NAME    
     ------------------                 ------------------------                     ----------------

           IN:                                      IN:
           ---                                      ---
                 CHD =        1548.2533                   CHD =          13.9713     CHD_0           

            TOTAL IN =        1548.2533              TOTAL IN =          13.9713

          OUT:                                     OUT:
          ----                                     ----
                 CHD =        1687.9065                   CHD =          13.9771     CHD_0           

           TOTAL OUT =        1687.9065             TOTAL OUT =          13.9771

            IN - OUT =         139.6533              IN - OUT =       5.7692E-03

 PERCENT DISCREPANCY =          -8.63     PERCENT DISCREPANCY =          -0.04




         TIME SUMMARY AT END OF TIME STEP    1 IN STRESS PERIOD   23
                    SECONDS     MINUTES      HOURS       DAYS        YEARS
                    -----------------------------------------------------------
   TIME STEP LENGTH  300.00      5.0000     8.33333E-02 3.47222E-03 9.50643E-06
 STRESS PERIOD TIME  300.00      5.0000     8.33333E-02 3.47222E-03 9.50643E-06
         TOTAL TIME  6900.0      115.00      1.9167     7.98611E-02 2.18648E-04


end timestep


start timestep kper="24" kstp="1" mode="normal"


 OUTPUT CONTROL FOR STRESS PERIOD 24 IS REPEATED USING SETTINGS FROM A PREVIOUS STRESS PERIOD.

 REUSING CHDS FROM LAST STRESS PERIOD
 UBDSV1 SAVING     FLOW-JA-FACE ON UNIT   1022 AT TIME STEP      1, STRESS PERIOD     24
 UBDSV06 SAVING       DATA-SPDIS IN MODEL SERIES2GWF       PACKAGE NPF             CONNECTED TO MODEL SERIES2GWF       PACKAGE NPF              ON UNIT   1022 AT TIME STEP      1, STRESS PERIOD     24
 UBDSV06 SAVING         DATA-SAT IN MODEL SERIES2GWF       PACKAGE NPF             CONNECTED TO MODEL SERIES2GWF       PACKAGE NPF              ON UNIT   1022 AT TIME STEP      1, STRESS PERIOD     24
 UBDSV06 SAVING              CHD IN MODEL SERIES2GWF       PACKAGE SERIES2GWF      CONNECTED TO MODEL SERIES2GWF       PACKAGE CHD_0            ON UNIT   1022 AT TIME STEP      1, STRESS PERIOD     24

 HEAD WILL BE SAVED ON UNIT 1023 AT END OF TIME STEP    1, STRESS PERIOD   24


  VOLUME BUDGET FOR ENTIRE MODEL AT END OF TIME STEP    1, STRESS PERIOD  24
  ---------------------------------------------------------------------------------------------------

     CUMULATIVE VOLUME      L**3       RATES FOR THIS TIME STEP      L**3/T          PACKAGE NAME    
     ------------------                 ------------------------                     ----------------

           IN:                                      IN:
           ---                                      ---
                 CHD =        1618.1106                   CHD =          13.9715     CHD_0           

            TOTAL IN =        1618.1106              TOTAL IN =          13.9715

          OUT:                                     OUT:
          ----                                     ----
                 CHD =        1757.7906                   CHD =          13.9768     CHD_0           

           TOTAL OUT =        1757.7906             TOTAL OUT =          13.9768

            IN - OUT =         139.6800              IN - OUT =       5.3458E-03

 PERCENT DISCREPANCY =          -8.28     PERCENT DISCREPANCY =          -0.04




         TIME SUMMARY AT END OF TIME STEP    1 IN STRESS PERIOD   24
                    SECONDS     MINUTES      HOURS       DAYS        YEARS
                    -----------------------------------------------------------
   TIME STEP LENGTH  300.00      5.0000     8.33333E-02 3.47222E-03 9.50643E-06
 STRESS PERIOD TIME  300.00      5.0000     8.33333E-02 3.47222E-03 9.50643E-06
         TOTAL TIME  7200.0      120.00      2.0000     8.33333E-02 2.28154E-04


end timestep


start timestep kper="25" kstp="1" mode="normal"


 OUTPUT CONTROL FOR STRESS PERIOD 25 IS REPEATED USING SETTINGS FROM A PREVIOUS STRESS PERIOD.

 REUSING CHDS FROM LAST STRESS PERIOD
 UBDSV1 SAVING     FLOW-JA-FACE ON UNIT   1022 AT TIME STEP      1, STRESS PERIOD     25
 UBDSV06 SAVING       DATA-SPDIS IN MODEL SERIES2GWF       PACKAGE NPF             CONNECTED TO MODEL SERIES2GWF       PACKAGE NPF              ON UNIT   1022 AT TIME STEP      1, STRESS PERIOD     25
 UBDSV06 SAVING         DATA-SAT IN MODEL SERIES2GWF       PACKAGE NPF             CONNECTED TO MODEL SERIES2GWF       PACKAGE NPF              ON UNIT   1022 AT TIME STEP      1, STRESS PERIOD     25
 UBDSV06 SAVING              CHD IN MODEL SERIES2GWF       PACKAGE SERIES2GWF      CONNECTED TO MODEL SERIES2GWF       PACKAGE CHD_0            ON UNIT   1022 AT TIME STEP      1, STRESS PERIOD     25

 HEAD WILL BE SAVED ON UNIT 1023 AT END OF TIME STEP    1, STRESS PERIOD   25


  VOLUME BUDGET FOR ENTIRE MODEL AT END OF TIME STEP    1, STRESS PERIOD  25
  ---------------------------------------------------------------------------------------------------

     CUMULATIVE VOLUME      L**3       RATES FOR THIS TIME STEP      L**3/T          PACKAGE NAME    
     ------------------                 ------------------------                     ----------------

           IN:                                      IN:
           ---                                      ---
                 CHD =        1687.9688                   CHD =          13.9716     CHD_0           

            TOTAL IN =        1687.9688              TOTAL IN =          13.9716

          OUT:                                     OUT:
          ----                                     ----
                 CHD =        1827.6737                   CHD =          13.9766     CHD_0           

           TOTAL OUT =        1827.6737             TOTAL OUT =          13.9766

            IN - OUT =         139.7049              IN - OUT =       4.9758E-03

 PERCENT DISCREPANCY =          -7.95     PERCENT DISCREPANCY =          -0.04




         TIME SUMMARY AT END OF TIME STEP    1 IN STRESS PERIOD   25
                    SECONDS     MINUTES      HOURS       DAYS        YEARS
                    -----------------------------------------------------------
   TIME STEP LENGTH  300.00      5.0000     8.33333E-02 3.47222E-03 9.50643E-06
 STRESS PERIOD TIME  300.00      5.0000     8.33333E-02 3.47222E-03 9.50643E-06
         TOTAL TIME  7500.0      125.00      2.0833     8.68056E-02 2.37661E-04


end timestep


start timestep kper="26" kstp="1" mode="normal"


 OUTPUT CONTROL FOR STRESS PERIOD 26 IS REPEATED USING SETTINGS FROM A PREVIOUS STRESS PERIOD.

 REUSING CHDS FROM LAST STRESS PERIOD
 UBDSV1 SAVING     FLOW-JA-FACE ON UNIT   1022 AT TIME STEP      1, STRESS PERIOD     26
 UBDSV06 SAVING       DATA-SPDIS IN MODEL SERIES2GWF       PACKAGE NPF             CONNECTED TO MODEL SERIES2GWF       PACKAGE NPF              ON UNIT   1022 AT TIME STEP      1, STRESS PERIOD     26
 UBDSV06 SAVING         DATA-SAT IN MODEL SERIES2GWF       PACKAGE NPF             CONNECTED TO MODEL SERIES2GWF       PACKAGE NPF              ON UNIT   1022 AT TIME STEP      1, STRESS PERIOD     26
 UBDSV06 SAVING              CHD IN MODEL SERIES2GWF       PACKAGE SERIES2GWF      CONNECTED TO MODEL SERIES2GWF       PACKAGE CHD_0            ON UNIT   1022 AT TIME STEP      1, STRESS PERIOD     26

 HEAD WILL BE SAVED ON UNIT 1023 AT END OF TIME STEP    1, STRESS PERIOD   26


  VOLUME BUDGET FOR ENTIRE MODEL AT END OF TIME STEP    1, STRESS PERIOD  26
  ---------------------------------------------------------------------------------------------------

     CUMULATIVE VOLUME      L**3       RATES FOR THIS TIME STEP      L**3/T          PACKAGE NAME    
     ------------------                 ------------------------                     ----------------

           IN:                                      IN:
           ---                                      ---
                 CHD =        1757.8277                   CHD =          13.9718     CHD_0           

            TOTAL IN =        1757.8277              TOTAL IN =          13.9718

          OUT:                                     OUT:
          ----                                     ----
                 CHD =        1897.5555                   CHD =          13.9764     CHD_0           

           TOTAL OUT =        1897.5555             TOTAL OUT =          13.9764

            IN - OUT =         139.7279              IN - OUT =       4.5994E-03

 PERCENT DISCREPANCY =          -7.65     PERCENT DISCREPANCY =          -0.03




         TIME SUMMARY AT END OF TIME STEP    1 IN STRESS PERIOD   26
                    SECONDS     MINUTES      HOURS       DAYS        YEARS
                    -----------------------------------------------------------
   TIME STEP LENGTH  300.00      5.0000     8.33333E-02 3.47222E-03 9.50643E-06
 STRESS PERIOD TIME  300.00      5.0000     8.33333E-02 3.47222E-03 9.50643E-06
         TOTAL TIME  7800.0      130.00      2.1667     9.02778E-02 2.47167E-04


end timestep


start timestep kper="27" kstp="1" mode="normal"


 OUTPUT CONTROL FOR STRESS PERIOD 27 IS REPEATED USING SETTINGS FROM A PREVIOUS STRESS PERIOD.

 REUSING CHDS FROM LAST STRESS PERIOD
 UBDSV1 SAVING     FLOW-JA-FACE ON UNIT   1022 AT TIME STEP      1, STRESS PERIOD     27
 UBDSV06 SAVING       DATA-SPDIS IN MODEL SERIES2GWF       PACKAGE NPF             CONNECTED TO MODEL SERIES2GWF       PACKAGE NPF              ON UNIT   1022 AT TIME STEP      1, STRESS PERIOD     27
 UBDSV06 SAVING         DATA-SAT IN MODEL SERIES2GWF       PACKAGE NPF             CONNECTED TO MODEL SERIES2GWF       PACKAGE NPF              ON UNIT   1022 AT TIME STEP      1, STRESS PERIOD     27
 UBDSV06 SAVING              CHD IN MODEL SERIES2GWF       PACKAGE SERIES2GWF      CONNECTED TO MODEL SERIES2GWF       PACKAGE CHD_0            ON UNIT   1022 AT TIME STEP      1, STRESS PERIOD     27

 HEAD WILL BE SAVED ON UNIT 1023 AT END OF TIME STEP    1, STRESS PERIOD   27


  VOLUME BUDGET FOR ENTIRE MODEL AT END OF TIME STEP    1, STRESS PERIOD  27
  ---------------------------------------------------------------------------------------------------

     CUMULATIVE VOLUME      L**3       RATES FOR THIS TIME STEP      L**3/T          PACKAGE NAME    
     ------------------                 ------------------------                     ----------------

           IN:                                      IN:
           ---                                      ---
                 CHD =        1827.6872                   CHD =          13.9719     CHD_0           

            TOTAL IN =        1827.6872              TOTAL IN =          13.9719

          OUT:                                     OUT:
          ----                                     ----
                 CHD =        1967.4365                   CHD =          13.9762     CHD_0           

           TOTAL OUT =        1967.4365             TOTAL OUT =          13.9762

            IN - OUT =         139.7493              IN - OUT =       4.2855E-03

 PERCENT DISCREPANCY =          -7.36     PERCENT DISCREPANCY =          -0.03




         TIME SUMMARY AT END OF TIME STEP    1 IN STRESS PERIOD   27
                    SECONDS     MINUTES      HOURS       DAYS        YEARS
                    -----------------------------------------------------------
   TIME STEP LENGTH  300.00      5.0000     8.33333E-02 3.47222E-03 9.50643E-06
 STRESS PERIOD TIME  300.00      5.0000     8.33333E-02 3.47222E-03 9.50643E-06
         TOTAL TIME  8100.0      135.00      2.2500     9.37500E-02 2.56674E-04


end timestep


start timestep kper="28" kstp="1" mode="normal"


 OUTPUT CONTROL FOR STRESS PERIOD 28 IS REPEATED USING SETTINGS FROM A PREVIOUS STRESS PERIOD.

 REUSING CHDS FROM LAST STRESS PERIOD
 UBDSV1 SAVING     FLOW-JA-FACE ON UNIT   1022 AT TIME STEP      1, STRESS PERIOD     28
 UBDSV06 SAVING       DATA-SPDIS IN MODEL SERIES2GWF       PACKAGE NPF             CONNECTED TO MODEL SERIES2GWF       PACKAGE NPF              ON UNIT   1022 AT TIME STEP      1, STRESS PERIOD     28
 UBDSV06 SAVING         DATA-SAT IN MODEL SERIES2GWF       PACKAGE NPF             CONNECTED TO MODEL SERIES2GWF       PACKAGE NPF              ON UNIT   1022 AT TIME STEP      1, STRESS PERIOD     28
 UBDSV06 SAVING              CHD IN MODEL SERIES2GWF       PACKAGE SERIES2GWF      CONNECTED TO MODEL SERIES2GWF       PACKAGE CHD_0            ON UNIT   1022 AT TIME STEP      1, STRESS PERIOD     28

 HEAD WILL BE SAVED ON UNIT 1023 AT END OF TIME STEP    1, STRESS PERIOD   28


  VOLUME BUDGET FOR ENTIRE MODEL AT END OF TIME STEP    1, STRESS PERIOD  28
  ---------------------------------------------------------------------------------------------------

     CUMULATIVE VOLUME      L**3       RATES FOR THIS TIME STEP      L**3/T          PACKAGE NAME    
     ------------------                 ------------------------                     ----------------

           IN:                                      IN:
           ---                                      ---
                 CHD =        1897.5474                   CHD =          13.9720     CHD_0           

            TOTAL IN =        1897.5474              TOTAL IN =          13.9720

          OUT:                                     OUT:
          ----                                     ----
                 CHD =        2037.3164                   CHD =          13.9760     CHD_0           

           TOTAL OUT =        2037.3164             TOTAL OUT =          13.9760

            IN - OUT =         139.7690              IN - OUT =       3.9388E-03

 PERCENT DISCREPANCY =          -7.10     PERCENT DISCREPANCY =          -0.03




         TIME SUMMARY AT END OF TIME STEP    1 IN STRESS PERIOD   28
                    SECONDS     MINUTES      HOURS       DAYS        YEARS
                    -----------------------------------------------------------
   TIME STEP LENGTH  300.00      5.0000     8.33333E-02 3.47222E-03 9.50643E-06
 STRESS PERIOD TIME  300.00      5.0000     8.33333E-02 3.47222E-03 9.50643E-06
         TOTAL TIME  8400.0      140.00      2.3333     9.72222E-02 2.66180E-04


end timestep


start timestep kper="29" kstp="1" mode="normal"


 OUTPUT CONTROL FOR STRESS PERIOD 29 IS REPEATED USING SETTINGS FROM A PREVIOUS STRESS PERIOD.

 REUSING CHDS FROM LAST STRESS PERIOD
 UBDSV1 SAVING     FLOW-JA-FACE ON UNIT   1022 AT TIME STEP      1, STRESS PERIOD     29
 UBDSV06 SAVING       DATA-SPDIS IN MODEL SERIES2GWF       PACKAGE NPF             CONNECTED TO MODEL SERIES2GWF       PACKAGE NPF              ON UNIT   1022 AT TIME STEP      1, STRESS PERIOD     29
 UBDSV06 SAVING         DATA-SAT IN MODEL SERIES2GWF       PACKAGE NPF             CONNECTED TO MODEL SERIES2GWF       PACKAGE NPF              ON UNIT   1022 AT TIME STEP      1, STRESS PERIOD     29
 UBDSV06 SAVING              CHD IN MODEL SERIES2GWF       PACKAGE SERIES2GWF      CONNECTED TO MODEL SERIES2GWF       PACKAGE CHD_0            ON UNIT   1022 AT TIME STEP      1, STRESS PERIOD     29

 HEAD WILL BE SAVED ON UNIT 1023 AT END OF TIME STEP    1, STRESS PERIOD   29


  VOLUME BUDGET FOR ENTIRE MODEL AT END OF TIME STEP    1, STRESS PERIOD  29
  ---------------------------------------------------------------------------------------------------

     CUMULATIVE VOLUME      L**3       RATES FOR THIS TIME STEP      L**3/T          PACKAGE NAME    
     ------------------                 ------------------------                     ----------------

           IN:                                      IN:
           ---                                      ---
                 CHD =        1967.4082                   CHD =          13.9722     CHD_0           

[...]
 UBDSV06 SAVING              CHD IN MODEL SERIES2GWF       PACKAGE SERIES2GWF      CONNECTED TO MODEL SERIES2GWF       PACKAGE CHD_0            ON UNIT   1022 AT TIME STEP      1, STRESS PERIOD     56

 HEAD WILL BE SAVED ON UNIT 1023 AT END OF TIME STEP    1, STRESS PERIOD   56


  VOLUME BUDGET FOR ENTIRE MODEL AT END OF TIME STEP    1, STRESS PERIOD  56
  ---------------------------------------------------------------------------------------------------

     CUMULATIVE VOLUME      L**3       RATES FOR THIS TIME STEP      L**3/T          PACKAGE NAME    
     ------------------                 ------------------------                     ----------------

           IN:                                      IN:
           ---                                      ---
                 CHD =        3853.7487                   CHD =          13.9733     CHD_0           

            TOTAL IN =        3853.7487              TOTAL IN =          13.9733

          OUT:                                     OUT:
          ----                                     ----
                 CHD =        3993.7874                   CHD =          13.9742     CHD_0           

           TOTAL OUT =        3993.7874             TOTAL OUT =          13.9742

            IN - OUT =         140.0387              IN - OUT =       8.8509E-04

 PERCENT DISCREPANCY =          -3.57     PERCENT DISCREPANCY =          -0.01




         TIME SUMMARY AT END OF TIME STEP    1 IN STRESS PERIOD   56
                    SECONDS     MINUTES      HOURS       DAYS        YEARS
                    -----------------------------------------------------------
   TIME STEP LENGTH  300.00      5.0000     8.33333E-02 3.47222E-03 9.50643E-06
 STRESS PERIOD TIME  300.00      5.0000     8.33333E-02 3.47222E-03 9.50643E-06
         TOTAL TIME  16800.      280.00      4.6667     0.19444     5.32360E-04


end timestep


start timestep kper="57" kstp="1" mode="normal"


 OUTPUT CONTROL FOR STRESS PERIOD 57 IS REPEATED USING SETTINGS FROM A PREVIOUS STRESS PERIOD.

 REUSING CHDS FROM LAST STRESS PERIOD
 UBDSV1 SAVING     FLOW-JA-FACE ON UNIT   1022 AT TIME STEP      1, STRESS PERIOD     57
 UBDSV06 SAVING       DATA-SPDIS IN MODEL SERIES2GWF       PACKAGE NPF             CONNECTED TO MODEL SERIES2GWF       PACKAGE NPF              ON UNIT   1022 AT TIME STEP      1, STRESS PERIOD     57
 UBDSV06 SAVING         DATA-SAT IN MODEL SERIES2GWF       PACKAGE NPF             CONNECTED TO MODEL SERIES2GWF       PACKAGE NPF              ON UNIT   1022 AT TIME STEP      1, STRESS PERIOD     57
 UBDSV06 SAVING              CHD IN MODEL SERIES2GWF       PACKAGE SERIES2GWF      CONNECTED TO MODEL SERIES2GWF       PACKAGE CHD_0            ON UNIT   1022 AT TIME STEP      1, STRESS PERIOD     57

 HEAD WILL BE SAVED ON UNIT 1023 AT END OF TIME STEP    1, STRESS PERIOD   57


  VOLUME BUDGET FOR ENTIRE MODEL AT END OF TIME STEP    1, STRESS PERIOD  57
  ---------------------------------------------------------------------------------------------------

     CUMULATIVE VOLUME      L**3       RATES FOR THIS TIME STEP      L**3/T          PACKAGE NAME    
     ------------------                 ------------------------                     ----------------

           IN:                                      IN:
           ---                                      ---
                 CHD =        3923.6153                   CHD =          13.9733     CHD_0           

            TOTAL IN =        3923.6153              TOTAL IN =          13.9733

          OUT:                                     OUT:
          ----                                     ----
                 CHD =        4063.6581                   CHD =          13.9741     CHD_0           

           TOTAL OUT =        4063.6581             TOTAL OUT =          13.9741

            IN - OUT =         140.0428              IN - OUT =       8.1786E-04

 PERCENT DISCREPANCY =          -3.51     PERCENT DISCREPANCY =          -0.01




         TIME SUMMARY AT END OF TIME STEP    1 IN STRESS PERIOD   57
                    SECONDS     MINUTES      HOURS       DAYS        YEARS
                    -----------------------------------------------------------
   TIME STEP LENGTH  300.00      5.0000     8.33333E-02 3.47222E-03 9.50643E-06
 STRESS PERIOD TIME  300.00      5.0000     8.33333E-02 3.47222E-03 9.50643E-06
         TOTAL TIME  17100.      285.00      4.7500     0.19792     5.41866E-04


end timestep


start timestep kper="58" kstp="1" mode="normal"


 OUTPUT CONTROL FOR STRESS PERIOD 58 IS REPEATED USING SETTINGS FROM A PREVIOUS STRESS PERIOD.

 REUSING CHDS FROM LAST STRESS PERIOD
 UBDSV1 SAVING     FLOW-JA-FACE ON UNIT   1022 AT TIME STEP      1, STRESS PERIOD     58
 UBDSV06 SAVING       DATA-SPDIS IN MODEL SERIES2GWF       PACKAGE NPF             CONNECTED TO MODEL SERIES2GWF       PACKAGE NPF              ON UNIT   1022 AT TIME STEP      1, STRESS PERIOD     58
 UBDSV06 SAVING         DATA-SAT IN MODEL SERIES2GWF       PACKAGE NPF             CONNECTED TO MODEL SERIES2GWF       PACKAGE NPF              ON UNIT   1022 AT TIME STEP      1, STRESS PERIOD     58
 UBDSV06 SAVING              CHD IN MODEL SERIES2GWF       PACKAGE SERIES2GWF      CONNECTED TO MODEL SERIES2GWF       PACKAGE CHD_0            ON UNIT   1022 AT TIME STEP      1, STRESS PERIOD     58

 HEAD WILL BE SAVED ON UNIT 1023 AT END OF TIME STEP    1, STRESS PERIOD   58


  VOLUME BUDGET FOR ENTIRE MODEL AT END OF TIME STEP    1, STRESS PERIOD  58
  ---------------------------------------------------------------------------------------------------

     CUMULATIVE VOLUME      L**3       RATES FOR THIS TIME STEP      L**3/T          PACKAGE NAME    
     ------------------                 ------------------------                     ----------------

           IN:                                      IN:
           ---                                      ---
                 CHD =        3993.4821                   CHD =          13.9734     CHD_0           

            TOTAL IN =        3993.4821              TOTAL IN =          13.9734

          OUT:                                     OUT:
          ----                                     ----
                 CHD =        4133.5285                   CHD =          13.9741     CHD_0           

           TOTAL OUT =        4133.5285             TOTAL OUT =          13.9741

            IN - OUT =         140.0464              IN - OUT =       7.2719E-04

 PERCENT DISCREPANCY =          -3.45     PERCENT DISCREPANCY =          -0.01




         TIME SUMMARY AT END OF TIME STEP    1 IN STRESS PERIOD   58
                    SECONDS     MINUTES      HOURS       DAYS        YEARS
                    -----------------------------------------------------------
   TIME STEP LENGTH  300.00      5.0000     8.33333E-02 3.47222E-03 9.50643E-06
 STRESS PERIOD TIME  300.00      5.0000     8.33333E-02 3.47222E-03 9.50643E-06
         TOTAL TIME  17400.      290.00      4.8333     0.20139     5.51373E-04


end timestep


start timestep kper="59" kstp="1" mode="normal"


 OUTPUT CONTROL FOR STRESS PERIOD 59 IS REPEATED USING SETTINGS FROM A PREVIOUS STRESS PERIOD.

 REUSING CHDS FROM LAST STRESS PERIOD
 UBDSV1 SAVING     FLOW-JA-FACE ON UNIT   1022 AT TIME STEP      1, STRESS PERIOD     59
 UBDSV06 SAVING       DATA-SPDIS IN MODEL SERIES2GWF       PACKAGE NPF             CONNECTED TO MODEL SERIES2GWF       PACKAGE NPF              ON UNIT   1022 AT TIME STEP      1, STRESS PERIOD     59
 UBDSV06 SAVING         DATA-SAT IN MODEL SERIES2GWF       PACKAGE NPF             CONNECTED TO MODEL SERIES2GWF       PACKAGE NPF              ON UNIT   1022 AT TIME STEP      1, STRESS PERIOD     59
 UBDSV06 SAVING              CHD IN MODEL SERIES2GWF       PACKAGE SERIES2GWF      CONNECTED TO MODEL SERIES2GWF       PACKAGE CHD_0            ON UNIT   1022 AT TIME STEP      1, STRESS PERIOD     59

 HEAD WILL BE SAVED ON UNIT 1023 AT END OF TIME STEP    1, STRESS PERIOD   59


  VOLUME BUDGET FOR ENTIRE MODEL AT END OF TIME STEP    1, STRESS PERIOD  59
  ---------------------------------------------------------------------------------------------------

     CUMULATIVE VOLUME      L**3       RATES FOR THIS TIME STEP      L**3/T          PACKAGE NAME    
     ------------------                 ------------------------                     ----------------

           IN:                                      IN:
           ---                                      ---
                 CHD =        4063.3490                   CHD =          13.9734     CHD_0           

            TOTAL IN =        4063.3490              TOTAL IN =          13.9734

          OUT:                                     OUT:
          ----                                     ----
                 CHD =        4203.3988                   CHD =          13.9740     CHD_0           

           TOTAL OUT =        4203.3988             TOTAL OUT =          13.9740

            IN - OUT =         140.0498              IN - OUT =       6.7095E-04

 PERCENT DISCREPANCY =          -3.39     PERCENT DISCREPANCY =          -0.00




         TIME SUMMARY AT END OF TIME STEP    1 IN STRESS PERIOD   59
                    SECONDS     MINUTES      HOURS       DAYS        YEARS
                    -----------------------------------------------------------
   TIME STEP LENGTH  300.00      5.0000     8.33333E-02 3.47222E-03 9.50643E-06
 STRESS PERIOD TIME  300.00      5.0000     8.33333E-02 3.47222E-03 9.50643E-06
         TOTAL TIME  17700.      295.00      4.9167     0.20486     5.60879E-04


end timestep


start timestep kper="60" kstp="1" mode="normal"


 OUTPUT CONTROL FOR STRESS PERIOD 60 IS REPEATED USING SETTINGS FROM A PREVIOUS STRESS PERIOD.

 REUSING CHDS FROM LAST STRESS PERIOD
 UBDSV1 SAVING     FLOW-JA-FACE ON UNIT   1022 AT TIME STEP      1, STRESS PERIOD     60
 UBDSV06 SAVING       DATA-SPDIS IN MODEL SERIES2GWF       PACKAGE NPF             CONNECTED TO MODEL SERIES2GWF       PACKAGE NPF              ON UNIT   1022 AT TIME STEP      1, STRESS PERIOD     60
 UBDSV06 SAVING         DATA-SAT IN MODEL SERIES2GWF       PACKAGE NPF             CONNECTED TO MODEL SERIES2GWF       PACKAGE NPF              ON UNIT   1022 AT TIME STEP      1, STRESS PERIOD     60
 UBDSV06 SAVING              CHD IN MODEL SERIES2GWF       PACKAGE SERIES2GWF      CONNECTED TO MODEL SERIES2GWF       PACKAGE CHD_0            ON UNIT   1022 AT TIME STEP      1, STRESS PERIOD     60

 HEAD WILL BE SAVED ON UNIT 1023 AT END OF TIME STEP    1, STRESS PERIOD   60


  VOLUME BUDGET FOR ENTIRE MODEL AT END OF TIME STEP    1, STRESS PERIOD  60
  ---------------------------------------------------------------------------------------------------

     CUMULATIVE VOLUME      L**3       RATES FOR THIS TIME STEP      L**3/T          PACKAGE NAME    
     ------------------                 ------------------------                     ----------------

           IN:                                      IN:
           ---                                      ---
                 CHD =        4133.2160                   CHD =          13.9734     CHD_0           

            TOTAL IN =        4133.2160              TOTAL IN =          13.9734

          OUT:                                     OUT:
          ----                                     ----
                 CHD =        4273.2688                   CHD =          13.9740     CHD_0           

           TOTAL OUT =        4273.2688             TOTAL OUT =          13.9740

            IN - OUT =         140.0528              IN - OUT =       5.9452E-04

 PERCENT DISCREPANCY =          -3.33     PERCENT DISCREPANCY =          -0.00




         TIME SUMMARY AT END OF TIME STEP    1 IN STRESS PERIOD   60
                    SECONDS     MINUTES      HOURS       DAYS        YEARS
                    -----------------------------------------------------------
   TIME STEP LENGTH  300.00      5.0000     8.33333E-02 3.47222E-03 9.50643E-06
 STRESS PERIOD TIME  300.00      5.0000     8.33333E-02 3.47222E-03 9.50643E-06
         TOTAL TIME  18000.      300.00      5.0000     0.20833     5.70386E-04


end timestep


start timestep kper="61" kstp="1" mode="normal"


 OUTPUT CONTROL FOR STRESS PERIOD 61 IS REPEATED USING SETTINGS FROM A PREVIOUS STRESS PERIOD.

 REUSING CHDS FROM LAST STRESS PERIOD
 UBDSV1 SAVING     FLOW-JA-FACE ON UNIT   1022 AT TIME STEP      1, STRESS PERIOD     61
 UBDSV06 SAVING       DATA-SPDIS IN MODEL SERIES2GWF       PACKAGE NPF             CONNECTED TO MODEL SERIES2GWF       PACKAGE NPF              ON UNIT   1022 AT TIME STEP      1, STRESS PERIOD     61
 UBDSV06 SAVING         DATA-SAT IN MODEL SERIES2GWF       PACKAGE NPF             CONNECTED TO MODEL SERIES2GWF       PACKAGE NPF              ON UNIT   1022 AT TIME STEP      1, STRESS PERIOD     61
 UBDSV06 SAVING              CHD IN MODEL SERIES2GWF       PACKAGE SERIES2GWF      CONNECTED TO MODEL SERIES2GWF       PACKAGE CHD_0            ON UNIT   1022 AT TIME STEP      1, STRESS PERIOD     61

 HEAD WILL BE SAVED ON UNIT 1023 AT END OF TIME STEP    1, STRESS PERIOD   61


  VOLUME BUDGET FOR ENTIRE MODEL AT END OF TIME STEP    1, STRESS PERIOD  61
  ---------------------------------------------------------------------------------------------------

     CUMULATIVE VOLUME      L**3       RATES FOR THIS TIME STEP      L**3/T          PACKAGE NAME    
     ------------------                 ------------------------                     ----------------

           IN:                                      IN:
           ---                                      ---
                 CHD =        4203.0831                   CHD =          13.9734     CHD_0           

            TOTAL IN =        4203.0831              TOTAL IN =          13.9734

          OUT:                                     OUT:
          ----                                     ----
                 CHD =        4343.1386                   CHD =          13.9740     CHD_0           

           TOTAL OUT =        4343.1386             TOTAL OUT =          13.9740

            IN - OUT =         140.0555              IN - OUT =       5.4922E-04

 PERCENT DISCREPANCY =          -3.28     PERCENT DISCREPANCY =          -0.00




         TIME SUMMARY AT END OF TIME STEP    1 IN STRESS PERIOD   61
                    SECONDS     MINUTES      HOURS       DAYS        YEARS
                    -----------------------------------------------------------
   TIME STEP LENGTH  300.00      5.0000     8.33333E-02 3.47222E-03 9.50643E-06
 STRESS PERIOD TIME  300.00      5.0000     8.33333E-02 3.47222E-03 9.50643E-06
         TOTAL TIME  18300.      305.00      5.0833     0.21181     5.79892E-04


end timestep


start timestep kper="62" kstp="1" mode="normal"


 OUTPUT CONTROL FOR STRESS PERIOD 62 IS REPEATED USING SETTINGS FROM A PREVIOUS STRESS PERIOD.

 REUSING CHDS FROM LAST STRESS PERIOD
 UBDSV1 SAVING     FLOW-JA-FACE ON UNIT   1022 AT TIME STEP      1, STRESS PERIOD     62
 UBDSV06 SAVING       DATA-SPDIS IN MODEL SERIES2GWF       PACKAGE NPF             CONNECTED TO MODEL SERIES2GWF       PACKAGE NPF              ON UNIT   1022 AT TIME STEP      1, STRESS PERIOD     62
 UBDSV06 SAVING         DATA-SAT IN MODEL SERIES2GWF       PACKAGE NPF             CONNECTED TO MODEL SERIES2GWF       PACKAGE NPF              ON UNIT   1022 AT TIME STEP      1, STRESS PERIOD     62
 UBDSV06 SAVING              CHD IN MODEL SERIES2GWF       PACKAGE SERIES2GWF      CONNECTED TO MODEL SERIES2GWF       PACKAGE CHD_0            ON UNIT   1022 AT TIME STEP      1, STRESS PERIOD     62

 HEAD WILL BE SAVED ON UNIT 1023 AT END OF TIME STEP    1, STRESS PERIOD   62


  VOLUME BUDGET FOR ENTIRE MODEL AT END OF TIME STEP    1, STRESS PERIOD  62
  ---------------------------------------------------------------------------------------------------

     CUMULATIVE VOLUME      L**3       RATES FOR THIS TIME STEP      L**3/T          PACKAGE NAME    
     ------------------                 ------------------------                     ----------------

           IN:                                      IN:
           ---                                      ---
                 CHD =        4272.9501                   CHD =          13.9734     CHD_0           

            TOTAL IN =        4272.9501              TOTAL IN =          13.9734

          OUT:                                     OUT:
          ----                                     ----
                 CHD =        4413.0087                   CHD =          13.9740     CHD_0           

           TOTAL OUT =        4413.0087             TOTAL OUT =          13.9740

            IN - OUT =         140.0586              IN - OUT =       6.1411E-04

 PERCENT DISCREPANCY =          -3.22     PERCENT DISCREPANCY =          -0.00




         TIME SUMMARY AT END OF TIME STEP    1 IN STRESS PERIOD   62
                    SECONDS     MINUTES      HOURS       DAYS        YEARS
                    -----------------------------------------------------------
   TIME STEP LENGTH  300.00      5.0000     8.33333E-02 3.47222E-03 9.50643E-06
 STRESS PERIOD TIME  300.00      5.0000     8.33333E-02 3.47222E-03 9.50643E-06
         TOTAL TIME  18600.      310.00      5.1667     0.21528     5.89398E-04


end timestep


start timestep kper="63" kstp="1" mode="normal"


 OUTPUT CONTROL FOR STRESS PERIOD 63 IS REPEATED USING SETTINGS FROM A PREVIOUS STRESS PERIOD.

 REUSING CHDS FROM LAST STRESS PERIOD
 UBDSV1 SAVING     FLOW-JA-FACE ON UNIT   1022 AT TIME STEP      1, STRESS PERIOD     63
 UBDSV06 SAVING       DATA-SPDIS IN MODEL SERIES2GWF       PACKAGE NPF             CONNECTED TO MODEL SERIES2GWF       PACKAGE NPF              ON UNIT   1022 AT TIME STEP      1, STRESS PERIOD     63
 UBDSV06 SAVING         DATA-SAT IN MODEL SERIES2GWF       PACKAGE NPF             CONNECTED TO MODEL SERIES2GWF       PACKAGE NPF              ON UNIT   1022 AT TIME STEP      1, STRESS PERIOD     63
 UBDSV06 SAVING              CHD IN MODEL SERIES2GWF       PACKAGE SERIES2GWF      CONNECTED TO MODEL SERIES2GWF       PACKAGE CHD_0            ON UNIT   1022 AT TIME STEP      1, STRESS PERIOD     63

 HEAD WILL BE SAVED ON UNIT 1023 AT END OF TIME STEP    1, STRESS PERIOD   63


  VOLUME BUDGET FOR ENTIRE MODEL AT END OF TIME STEP    1, STRESS PERIOD  63
  ---------------------------------------------------------------------------------------------------

     CUMULATIVE VOLUME      L**3       RATES FOR THIS TIME STEP      L**3/T          PACKAGE NAME    
     ------------------                 ------------------------                     ----------------

           IN:                                      IN:
           ---                                      ---
                 CHD =        4342.8172                   CHD =          13.9734     CHD_0           

            TOTAL IN =        4342.8172              TOTAL IN =          13.9734

          OUT:                                     OUT:
          ----                                     ----
                 CHD =        4482.8787                   CHD =          13.9740     CHD_0           

           TOTAL OUT =        4482.8787             TOTAL OUT =          13.9740

            IN - OUT =         140.0615              IN - OUT =       5.7551E-04

 PERCENT DISCREPANCY =          -3.17     PERCENT DISCREPANCY =          -0.00




         TIME SUMMARY AT END OF TIME STEP    1 IN STRESS PERIOD   63
                    SECONDS     MINUTES      HOURS       DAYS        YEARS
                    -----------------------------------------------------------
   TIME STEP LENGTH  300.00      5.0000     8.33333E-02 3.47222E-03 9.50643E-06
 STRESS PERIOD TIME  300.00      5.0000     8.33333E-02 3.47222E-03 9.50643E-06
         TOTAL TIME  18900.      315.00      5.2500     0.21875     5.98905E-04


end timestep

