                                   MODFLOW 6
                U.S. GEOLOGICAL SURVEY MODULAR HYDROLOGIC MODEL
                       GROUNDWATER TRANSPORT MODEL (GWT)
                            VERSION 6.2.1 02/18/2021

  MODFLOW 6 compiled May  6 2021 00:38:39 with GFORTRAN compiler (ver. 10.2.0)

This software has been approved for release by the U.S. Geological 
Survey (USGS). Although the software has been subjected to rigorous 
review, the USGS reserves the right to update the software as needed 
pursuant to further analysis and review. No warranty, expressed or 
implied, is made by the USGS or the U.S. Government as to the 
functionality of the software and related material nor shall the 
fact of release constitute any such warranty. Furthermore, the 
software is released on condition that neither the USGS nor the U.S. 
Government shall be held liable for any damages resulting from its 
authorized or unauthorized use. Also refer to the USGS Water 
Resources Software User Rights Notice for complete use, copyright, 
and distribution information.


System command used to initiate simulation:
/usr/local/bin/mf6

MODFLOW was compiled using uniform precision.

Real Variables
  KIND: 8
  TINY (smallest non-zero value):    2.225074-308
  HUGE (largest value):    1.797693+308
  PRECISION: 15
  BIT SIZE: 64

Integer Variables
  KIND: 4
  HUGE (largest value): 2147483647
  BIT SIZE: 32

Long Integer Variables
  KIND: 8
  HUGE (largest value): 9223372036854775807
  BIT SIZE: 64

Logical Variables
  KIND: 4
  BIT SIZE: 32


 OPENED /Users/Theo/GRWMODELS/python/Pennink-Model/cases/Series2/GWT/Series2Gwt.dis
 FILE TYPE:DIS6                   UNIT 1012   STATUS:OLD                 
 FORMAT:FORMATTED              ACCESS:SEQUENTIAL          
 ACTION:READ                


 OPENED /Users/Theo/GRWMODELS/python/Pennink-Model/cases/Series2/GWT/Series2Gwt.adv
 FILE TYPE:ADV6                   UNIT 1013   STATUS:OLD                 
 FORMAT:FORMATTED              ACCESS:SEQUENTIAL          
 ACTION:READ                


 OPENED /Users/Theo/GRWMODELS/python/Pennink-Model/cases/Series2/GWT/Series2Gwt.cnc
 FILE TYPE:CNC6                   UNIT 1014   STATUS:OLD                 
 FORMAT:FORMATTED              ACCESS:SEQUENTIAL          
 ACTION:READ                


 OPENED /Users/Theo/GRWMODELS/python/Pennink-Model/cases/Series2/GWT/Series2Gwt.dsp
 FILE TYPE:DSP6                   UNIT 1015   STATUS:OLD                 
 FORMAT:FORMATTED              ACCESS:SEQUENTIAL          
 ACTION:READ                


 OPENED /Users/Theo/GRWMODELS/python/Pennink-Model/cases/Series2/GWT/Series2Gwt.ic
 FILE TYPE:IC6                    UNIT 1016   STATUS:OLD                 
 FORMAT:FORMATTED              ACCESS:SEQUENTIAL          
 ACTION:READ                


 OPENED /Users/Theo/GRWMODELS/python/Pennink-Model/cases/Series2/GWT/Series2Gwt.mst
 FILE TYPE:MST6                   UNIT 1017   STATUS:OLD                 
 FORMAT:FORMATTED              ACCESS:SEQUENTIAL          
 ACTION:READ                


 OPENED /Users/Theo/GRWMODELS/python/Pennink-Model/cases/Series2/GWT/Series2Gwt.oc
 FILE TYPE:OC6                    UNIT 1018   STATUS:OLD                 
 FORMAT:FORMATTED              ACCESS:SEQUENTIAL          
 ACTION:READ                


 OPENED /Users/Theo/GRWMODELS/python/Pennink-Model/cases/Series2/GWT/Series2Gwt.ssm
 FILE TYPE:SSM6                   UNIT 1019   STATUS:OLD                 
 FORMAT:FORMATTED              ACCESS:SEQUENTIAL          
 ACTION:READ                

 NAMEFILE OPTIONS:
    FLOWS WILL BE SAVED TO BUDGET FILE SPECIFIED IN OUTPUT CONTROL

 DIS -- STRUCTURED GRID DISCRETIZATION PACKAGE, VERSION 2 : 3/27/2014 - INPUT READ FROM UNIT 1012


 # File generated by Flopy version 3.4.3 on 12/11/2023 at 22:38:12.
 PROCESSING DISCRETIZATION OPTIONS
    MODEL LENGTH UNIT IS CENTIMETERS
 END OF DISCRETIZATION OPTIONS
 PROCESSING DISCRETIZATION DIMENSIONS
    NLAY =      65
    NROW =       1
    NCOL =      65
 END OF DISCRETIZATION DIMENSIONS
 PROCESSING GRIDDATA

                     DELC =   1.800000    
 END PROCESSING GRIDDATA

 THE SPECIFIED IDOMAIN RESULTS IN A REDUCED NUMBER OF CELLS.
 NUMBER OF USER NODES: 4225
 NUMBER OF NODES IN SOLUTION: 3763



 FMI -- FLOW MODEL INTERFACE, VERSION 1, 8/29/2017
  FLOWS PROVIDED BY A GWF MODEL IN THIS SIMULATION
 # File generated by Flopy version 3.4.3 on 12/11/2023 at 22:38:12.
 PROCESSING DISPERSION OPTIONS
 END OF DISPERSION OPTIONS

 CNC   -- CNC PACKAGE, VERSION 8, 2/22/2014 INPUT READ FROM UNIT 1014
 # File generated by Flopy version 3.4.3 on 12/11/2023 at 22:38:12.

 PROCESSING CNC OPTIONS
    FLOWS WILL BE SAVED TO BUDGET FILE SPECIFIED IN OUTPUT CONTROL
 END OF CNC OPTIONS

 PROCESSING CNC DIMENSIONS
    MAXBOUND =       4
 END OF CNC DIMENSIONS

 IC -- INITIAL CONDITIONS PACKAGE, VERSION 8, 3/28/2015 INPUT READ FROM UNIT 1016
 # File generated by Flopy version 3.4.3 on 12/11/2023 at 22:38:12.
 PROCESSING GRIDDATA
 END PROCESSING GRIDDATA

 MST -- MOBILE STORAGE AND TRANSFER PACKAGE, VERSION 1, 7/29/2020 INPUT READ FROM UNIT 1017


 # File generated by Flopy version 3.4.3 on 12/11/2023 at 22:38:12.
 PROCESSING MOBILE STORAGE AND TRANSFER OPTIONS
    CELL-BY-CELL FLOW INFORMATION WILL BE SAVED TO BINARY FILE WHENEVER ICBCFL IS NOT ZERO.
 END OF MOBILE STORAGE AND TRANSFER OPTIONS
 PROCESSING GRIDDATA

   MOBILE DOMAIN POROSITY =  0.2000000    
 END PROCESSING GRIDDATA

 ADV-- ADVECTION PACKAGE, VERSION 1, 8/25/2017 INPUT READ FROM UNIT 1013


 # File generated by Flopy version 3.4.3 on 12/11/2023 at 22:38:12.
 PROCESSING ADVECTION OPTIONS
    ADVECTION WEIGHTING SCHEME HAS BEEN SET TO: TVD
 SELECTED ADVECTION SCHEME RESULTS IN AN ASYMMETRIC MATRIX.
 END OF ADVECTION OPTIONS

 DSP-- DISPERSION PACKAGE, VERSION 1, 1/24/2018 INPUT READ FROM UNIT 1015


 PROCESSING GRIDDATA

    DIFFUSION COEFFICIENT =  0.6000000E-04

                      ALH =   1.000000    

                     ATH1 =  0.1000000E-01

                     ATH2 =  0.1000000E-01

                      ATV =  0.1000000    
 END PROCESSING GRIDDATA

 SSM -- SOURCE-SINK MIXING PACKAGE, VERSION 1, 8/25/2017 INPUT READ FROM UNIT 1019


 # File generated by Flopy version 3.4.3 on 12/11/2023 at 22:38:12.
 PROCESSING SSM OPTIONS
    CELL-BY-CELL FLOW INFORMATION WILL BE SAVED TO BINARY FILE WHENEVER ICBCFL IS NOT ZERO.
 END OF SSM OPTIONS
 PROCESSING SOURCES
 END PROCESSING SOURCES
      THE LAST TIME STEP WILL BE PRINTED
      THE LAST TIME STEP WILL BE PRINTED
 # File generated by Flopy version 3.4.3 on 12/11/2023 at 22:38:12.

 PROCESSING OC OPTIONS

    BUDGET INFORMATION WILL BE WRITTEN TO:
      UNIT NUMBER: 1024
      FILE NAME: /Users/Theo/GRWMODELS/python/Pennink-Model/cases/Series2/SIM/Series2Gwt.cbc

 OPENED /Users/Theo/GRWMODELS/python/Pennink-Model/cases/Series2/SIM/Series2Gwt.cbc
 FILE TYPE:DATA(BINARY)   UNIT 1024   STATUS:REPLACE             
 FORMAT:UNFORMATTED            ACCESS:STREAM              
 ACTION:READWRITE           

    CONCENTRATION INFORMATION WILL BE WRITTEN TO:
      UNIT NUMBER: 1025
      FILE NAME: /Users/Theo/GRWMODELS/python/Pennink-Model/cases/Series2/SIM/Series2Gwt.ucn

 OPENED /Users/Theo/GRWMODELS/python/Pennink-Model/cases/Series2/SIM/Series2Gwt.ucn
 FILE TYPE:DATA(BINARY)   UNIT 1025   STATUS:REPLACE             
 FORMAT:UNFORMATTED            ACCESS:STREAM              
 ACTION:READWRITE           

 END OF OC OPTIONS

start timestep kper="1" kstp="1" mode="normal"


 BEGIN READING OUTPUT CONTROL FOR STRESS PERIOD 1
      ALL TIME STEPS WILL BE SAVED
      ALL TIME STEPS WILL BE SAVED

 END READING OUTPUT CONTROL FOR STRESS PERIOD 1

 REUSING CNCS FROM LAST STRESS PERIOD

 XT3D is active.


 UBDSV1 SAVING  STORAGE-AQUEOUS ON UNIT   1024 AT TIME STEP      1, STRESS PERIOD      1
 UBDSV1 SAVING     FLOW-JA-FACE ON UNIT   1024 AT TIME STEP      1, STRESS PERIOD      1
 UBDSV06 SAVING  SOURCE-SINK MIX IN MODEL SERIES2GWT       PACKAGE SERIES2GWT      CONNECTED TO MODEL SERIES2GWT       PACKAGE SSM              ON UNIT   1024 AT TIME STEP      1, STRESS PERIOD      1
 UBDSV06 SAVING              CNC IN MODEL SERIES2GWT       PACKAGE SERIES2GWT      CONNECTED TO MODEL SERIES2GWT       PACKAGE CNC              ON UNIT   1024 AT TIME STEP      1, STRESS PERIOD      1

 CONCENTRATION WILL BE SAVED ON UNIT 1025 AT END OF TIME STEP    1, STRESS PERIOD    1


  MASS BUDGET FOR ENTIRE MODEL AT END OF TIME STEP    1, STRESS PERIOD   1
  ---------------------------------------------------------------------------------------------------

     CUMULATIVE MASS      M       RATES FOR THIS TIME STEP      M/T          PACKAGE NAME    
     ------------------                 ------------------------                     ----------------

           IN:                                      IN:
           ---                                      ---
     STORAGE-AQUEOUS =           0.0000       STORAGE-AQUEOUS =           0.0000     MST             
               CHD_0 =           0.0000                 CHD_0 =           0.0000     SSM             
                 CNC =           0.0000                   CNC =           0.0000     CNC             

            TOTAL IN =           0.0000              TOTAL IN =           0.0000

          OUT:                                     OUT:
          ----                                     ----
     STORAGE-AQUEOUS =           0.0000       STORAGE-AQUEOUS =           0.0000     MST             
               CHD_0 =           0.0000                 CHD_0 =           0.0000     SSM             
                 CNC =           0.0000                   CNC =           0.0000     CNC             

           TOTAL OUT =           0.0000             TOTAL OUT =           0.0000

            IN - OUT =           0.0000              IN - OUT =           0.0000

 PERCENT DISCREPANCY =           0.00     PERCENT DISCREPANCY =           0.00




         TIME SUMMARY AT END OF TIME STEP    1 IN STRESS PERIOD    1
                    SECONDS     MINUTES      HOURS       DAYS        YEARS
                    -----------------------------------------------------------
   TIME STEP LENGTH  300.00      5.0000     8.33333E-02 3.47222E-03 9.50643E-06
 STRESS PERIOD TIME  300.00      5.0000     8.33333E-02 3.47222E-03 9.50643E-06
         TOTAL TIME  300.00      5.0000     8.33333E-02 3.47222E-03 9.50643E-06


end timestep


start timestep kper="2" kstp="1" mode="normal"


 END OF FILE DETECTED IN OUTPUT CONTROL.
 CURRENT OUTPUT CONTROL SETTINGS WILL BE 
 REPEATED UNTIL THE END OF THE SIMULATION.

 OUTPUT CONTROL FOR STRESS PERIOD 2 IS REPEATED USING SETTINGS FROM A PREVIOUS STRESS PERIOD.

 REUSING CNCS FROM LAST STRESS PERIOD
 UBDSV1 SAVING  STORAGE-AQUEOUS ON UNIT   1024 AT TIME STEP      1, STRESS PERIOD      2
 UBDSV1 SAVING     FLOW-JA-FACE ON UNIT   1024 AT TIME STEP      1, STRESS PERIOD      2
 UBDSV06 SAVING  SOURCE-SINK MIX IN MODEL SERIES2GWT       PACKAGE SERIES2GWT      CONNECTED TO MODEL SERIES2GWT       PACKAGE SSM              ON UNIT   1024 AT TIME STEP      1, STRESS PERIOD      2
 UBDSV06 SAVING              CNC IN MODEL SERIES2GWT       PACKAGE SERIES2GWT      CONNECTED TO MODEL SERIES2GWT       PACKAGE CNC              ON UNIT   1024 AT TIME STEP      1, STRESS PERIOD      2

 CONCENTRATION WILL BE SAVED ON UNIT 1025 AT END OF TIME STEP    1, STRESS PERIOD    2


  MASS BUDGET FOR ENTIRE MODEL AT END OF TIME STEP    1, STRESS PERIOD   2
  ---------------------------------------------------------------------------------------------------

     CUMULATIVE MASS      M       RATES FOR THIS TIME STEP      M/T          PACKAGE NAME    
     ------------------                 ------------------------                     ----------------

           IN:                                      IN:
           ---                                      ---
     STORAGE-AQUEOUS =           0.0000       STORAGE-AQUEOUS =           0.0000     MST             
               CHD_0 =           0.0000                 CHD_0 =           0.0000     SSM             
                 CNC =           0.0000                   CNC =           0.0000     CNC             

            TOTAL IN =           0.0000              TOTAL IN =           0.0000

          OUT:                                     OUT:
          ----                                     ----
     STORAGE-AQUEOUS =           0.0000       STORAGE-AQUEOUS =           0.0000     MST             
               CHD_0 =           0.0000                 CHD_0 =           0.0000     SSM             
                 CNC =           0.0000                   CNC =           0.0000     CNC             

           TOTAL OUT =           0.0000             TOTAL OUT =           0.0000

            IN - OUT =           0.0000              IN - OUT =           0.0000

 PERCENT DISCREPANCY =           0.00     PERCENT DISCREPANCY =           0.00




         TIME SUMMARY AT END OF TIME STEP    1 IN STRESS PERIOD    2
                    SECONDS     MINUTES      HOURS       DAYS        YEARS
                    -----------------------------------------------------------
   TIME STEP LENGTH  300.00      5.0000     8.33333E-02 3.47222E-03 9.50643E-06
 STRESS PERIOD TIME  300.00      5.0000     8.33333E-02 3.47222E-03 9.50643E-06
         TOTAL TIME  600.00      10.000     0.16667     6.94444E-03 1.90129E-05


end timestep


start timestep kper="3" kstp="1" mode="normal"


 OUTPUT CONTROL FOR STRESS PERIOD 3 IS REPEATED USING SETTINGS FROM A PREVIOUS STRESS PERIOD.

 REUSING CNCS FROM LAST STRESS PERIOD
 UBDSV1 SAVING  STORAGE-AQUEOUS ON UNIT   1024 AT TIME STEP      1, STRESS PERIOD      3
 UBDSV1 SAVING     FLOW-JA-FACE ON UNIT   1024 AT TIME STEP      1, STRESS PERIOD      3
 UBDSV06 SAVING  SOURCE-SINK MIX IN MODEL SERIES2GWT       PACKAGE SERIES2GWT      CONNECTED TO MODEL SERIES2GWT       PACKAGE SSM              ON UNIT   1024 AT TIME STEP      1, STRESS PERIOD      3
 UBDSV06 SAVING              CNC IN MODEL SERIES2GWT       PACKAGE SERIES2GWT      CONNECTED TO MODEL SERIES2GWT       PACKAGE CNC              ON UNIT   1024 AT TIME STEP      1, STRESS PERIOD      3

 CONCENTRATION WILL BE SAVED ON UNIT 1025 AT END OF TIME STEP    1, STRESS PERIOD    3


  MASS BUDGET FOR ENTIRE MODEL AT END OF TIME STEP    1, STRESS PERIOD   3
  ---------------------------------------------------------------------------------------------------

     CUMULATIVE MASS      M       RATES FOR THIS TIME STEP      M/T          PACKAGE NAME    
     ------------------                 ------------------------                     ----------------

           IN:                                      IN:
           ---                                      ---
     STORAGE-AQUEOUS =           0.0000       STORAGE-AQUEOUS =           0.0000     MST             
               CHD_0 =           0.0000                 CHD_0 =           0.0000     SSM             
                 CNC =           0.0000                   CNC =           0.0000     CNC             

            TOTAL IN =           0.0000              TOTAL IN =           0.0000

          OUT:                                     OUT:
          ----                                     ----
     STORAGE-AQUEOUS =           0.0000       STORAGE-AQUEOUS =           0.0000     MST             
               CHD_0 =           0.0000                 CHD_0 =           0.0000     SSM             
                 CNC =           0.0000                   CNC =           0.0000     CNC             

           TOTAL OUT =           0.0000             TOTAL OUT =           0.0000

            IN - OUT =           0.0000              IN - OUT =           0.0000

 PERCENT DISCREPANCY =           0.00     PERCENT DISCREPANCY =           0.00




         TIME SUMMARY AT END OF TIME STEP    1 IN STRESS PERIOD    3
                    SECONDS     MINUTES      HOURS       DAYS        YEARS
                    -----------------------------------------------------------
   TIME STEP LENGTH  300.00      5.0000     8.33333E-02 3.47222E-03 9.50643E-06
 STRESS PERIOD TIME  300.00      5.0000     8.33333E-02 3.47222E-03 9.50643E-06
         TOTAL TIME  900.00      15.000     0.25000     1.04167E-02 2.85193E-05


end timestep


start timestep kper="4" kstp="1" mode="normal"


 OUTPUT CONTROL FOR STRESS PERIOD 4 IS REPEATED USING SETTINGS FROM A PREVIOUS STRESS PERIOD.

 REUSING CNCS FROM LAST STRESS PERIOD
 UBDSV1 SAVING  STORAGE-AQUEOUS ON UNIT   1024 AT TIME STEP      1, STRESS PERIOD      4
 UBDSV1 SAVING     FLOW-JA-FACE ON UNIT   1024 AT TIME STEP      1, STRESS PERIOD      4
 UBDSV06 SAVING  SOURCE-SINK MIX IN MODEL SERIES2GWT       PACKAGE SERIES2GWT      CONNECTED TO MODEL SERIES2GWT       PACKAGE SSM              ON UNIT   1024 AT TIME STEP      1, STRESS PERIOD      4
 UBDSV06 SAVING              CNC IN MODEL SERIES2GWT       PACKAGE SERIES2GWT      CONNECTED TO MODEL SERIES2GWT       PACKAGE CNC              ON UNIT   1024 AT TIME STEP      1, STRESS PERIOD      4

 CONCENTRATION WILL BE SAVED ON UNIT 1025 AT END OF TIME STEP    1, STRESS PERIOD    4


  MASS BUDGET FOR ENTIRE MODEL AT END OF TIME STEP    1, STRESS PERIOD   4
  ---------------------------------------------------------------------------------------------------

     CUMULATIVE MASS      M       RATES FOR THIS TIME STEP      M/T          PACKAGE NAME    
     ------------------                 ------------------------                     ----------------

           IN:                                      IN:
           ---                                      ---
     STORAGE-AQUEOUS =           0.0000       STORAGE-AQUEOUS =           0.0000     MST             
               CHD_0 =           0.0000                 CHD_0 =           0.0000     SSM             
                 CNC =           0.0000                   CNC =           0.0000     CNC             

            TOTAL IN =           0.0000              TOTAL IN =           0.0000

          OUT:                                     OUT:
          ----                                     ----
     STORAGE-AQUEOUS =           0.0000       STORAGE-AQUEOUS =           0.0000     MST             
               CHD_0 =           0.0000                 CHD_0 =           0.0000     SSM             
                 CNC =           0.0000                   CNC =           0.0000     CNC             

           TOTAL OUT =           0.0000             TOTAL OUT =           0.0000

            IN - OUT =           0.0000              IN - OUT =           0.0000

 PERCENT DISCREPANCY =           0.00     PERCENT DISCREPANCY =           0.00




         TIME SUMMARY AT END OF TIME STEP    1 IN STRESS PERIOD    4
                    SECONDS     MINUTES      HOURS       DAYS        YEARS
                    -----------------------------------------------------------
   TIME STEP LENGTH  300.00      5.0000     8.33333E-02 3.47222E-03 9.50643E-06
 STRESS PERIOD TIME  300.00      5.0000     8.33333E-02 3.47222E-03 9.50643E-06
         TOTAL TIME  1200.0      20.000     0.33333     1.38889E-02 3.80257E-05


end timestep


start timestep kper="5" kstp="1" mode="normal"


 OUTPUT CONTROL FOR STRESS PERIOD 5 IS REPEATED USING SETTINGS FROM A PREVIOUS STRESS PERIOD.

 REUSING CNCS FROM LAST STRESS PERIOD
 UBDSV1 SAVING  STORAGE-AQUEOUS ON UNIT   1024 AT TIME STEP      1, STRESS PERIOD      5
 UBDSV1 SAVING     FLOW-JA-FACE ON UNIT   1024 AT TIME STEP      1, STRESS PERIOD      5
 UBDSV06 SAVING  SOURCE-SINK MIX IN MODEL SERIES2GWT       PACKAGE SERIES2GWT      CONNECTED TO MODEL SERIES2GWT       PACKAGE SSM              ON UNIT   1024 AT TIME STEP      1, STRESS PERIOD      5
 UBDSV06 SAVING              CNC IN MODEL SERIES2GWT       PACKAGE SERIES2GWT      CONNECTED TO MODEL SERIES2GWT       PACKAGE CNC              ON UNIT   1024 AT TIME STEP      1, STRESS PERIOD      5

 CONCENTRATION WILL BE SAVED ON UNIT 1025 AT END OF TIME STEP    1, STRESS PERIOD    5


  MASS BUDGET FOR ENTIRE MODEL AT END OF TIME STEP    1, STRESS PERIOD   5
  ---------------------------------------------------------------------------------------------------

     CUMULATIVE MASS      M       RATES FOR THIS TIME STEP      M/T          PACKAGE NAME    
     ------------------                 ------------------------                     ----------------

           IN:                                      IN:
           ---                                      ---
     STORAGE-AQUEOUS =           0.0000       STORAGE-AQUEOUS =           0.0000     MST             
               CHD_0 =           0.0000                 CHD_0 =           0.0000     SSM             
                 CNC =           0.0000                   CNC =           0.0000     CNC             

            TOTAL IN =           0.0000              TOTAL IN =           0.0000

          OUT:                                     OUT:
          ----                                     ----
     STORAGE-AQUEOUS =           0.0000       STORAGE-AQUEOUS =           0.0000     MST             
               CHD_0 =           0.0000                 CHD_0 =           0.0000     SSM             
                 CNC =           0.0000                   CNC =           0.0000     CNC             

           TOTAL OUT =           0.0000             TOTAL OUT =           0.0000

            IN - OUT =           0.0000              IN - OUT =           0.0000

 PERCENT DISCREPANCY =           0.00     PERCENT DISCREPANCY =           0.00




         TIME SUMMARY AT END OF TIME STEP    1 IN STRESS PERIOD    5
                    SECONDS     MINUTES      HOURS       DAYS        YEARS
                    -----------------------------------------------------------
   TIME STEP LENGTH  300.00      5.0000     8.33333E-02 3.47222E-03 9.50643E-06
 STRESS PERIOD TIME  300.00      5.0000     8.33333E-02 3.47222E-03 9.50643E-06
         TOTAL TIME  1500.0      25.000     0.41667     1.73611E-02 4.75321E-05


end timestep


start timestep kper="6" kstp="1" mode="normal"


 OUTPUT CONTROL FOR STRESS PERIOD 6 IS REPEATED USING SETTINGS FROM A PREVIOUS STRESS PERIOD.

 REUSING CNCS FROM LAST STRESS PERIOD
 UBDSV1 SAVING  STORAGE-AQUEOUS ON UNIT   1024 AT TIME STEP      1, STRESS PERIOD      6
 UBDSV1 SAVING     FLOW-JA-FACE ON UNIT   1024 AT TIME STEP      1, STRESS PERIOD      6
 UBDSV06 SAVING  SOURCE-SINK MIX IN MODEL SERIES2GWT       PACKAGE SERIES2GWT      CONNECTED TO MODEL SERIES2GWT       PACKAGE SSM              ON UNIT   1024 AT TIME STEP      1, STRESS PERIOD      6
 UBDSV06 SAVING              CNC IN MODEL SERIES2GWT       PACKAGE SERIES2GWT      CONNECTED TO MODEL SERIES2GWT       PACKAGE CNC              ON UNIT   1024 AT TIME STEP      1, STRESS PERIOD      6

 CONCENTRATION WILL BE SAVED ON UNIT 1025 AT END OF TIME STEP    1, STRESS PERIOD    6


  MASS BUDGET FOR ENTIRE MODEL AT END OF TIME STEP    1, STRESS PERIOD   6
  ---------------------------------------------------------------------------------------------------

     CUMULATIVE MASS      M       RATES FOR THIS TIME STEP      M/T          PACKAGE NAME    
     ------------------                 ------------------------                     ----------------

           IN:                                      IN:
           ---                                      ---
     STORAGE-AQUEOUS =           0.0000       STORAGE-AQUEOUS =           0.0000     MST             
               CHD_0 =           0.0000                 CHD_0 =           0.0000     SSM             
                 CNC =           0.0000                   CNC =           0.0000     CNC             

            TOTAL IN =           0.0000              TOTAL IN =           0.0000

          OUT:                                     OUT:
          ----                                     ----
     STORAGE-AQUEOUS =           0.0000       STORAGE-AQUEOUS =           0.0000     MST             
               CHD_0 =           0.0000                 CHD_0 =           0.0000     SSM             
                 CNC =           0.0000                   CNC =           0.0000     CNC             

           TOTAL OUT =           0.0000             TOTAL OUT =           0.0000

            IN - OUT =           0.0000              IN - OUT =           0.0000

 PERCENT DISCREPANCY =           0.00     PERCENT DISCREPANCY =           0.00




         TIME SUMMARY AT END OF TIME STEP    1 IN STRESS PERIOD    6
                    SECONDS     MINUTES      HOURS       DAYS        YEARS
                    -----------------------------------------------------------
   TIME STEP LENGTH  300.00      5.0000     8.33333E-02 3.47222E-03 9.50643E-06
 STRESS PERIOD TIME  300.00      5.0000     8.33333E-02 3.47222E-03 9.50643E-06
         TOTAL TIME  1800.0      30.000     0.50000     2.08333E-02 5.70386E-05


end timestep


start timestep kper="7" kstp="1" mode="normal"


 OUTPUT CONTROL FOR STRESS PERIOD 7 IS REPEATED USING SETTINGS FROM A PREVIOUS STRESS PERIOD.

 REUSING CNCS FROM LAST STRESS PERIOD
 UBDSV1 SAVING  STORAGE-AQUEOUS ON UNIT   1024 AT TIME STEP      1, STRESS PERIOD      7
 UBDSV1 SAVING     FLOW-JA-FACE ON UNIT   1024 AT TIME STEP      1, STRESS PERIOD      7
 UBDSV06 SAVING  SOURCE-SINK MIX IN MODEL SERIES2GWT       PACKAGE SERIES2GWT      CONNECTED TO MODEL SERIES2GWT       PACKAGE SSM              ON UNIT   1024 AT TIME STEP      1, STRESS PERIOD      7
 UBDSV06 SAVING              CNC IN MODEL SERIES2GWT       PACKAGE SERIES2GWT      CONNECTED TO MODEL SERIES2GWT       PACKAGE CNC              ON UNIT   1024 AT TIME STEP      1, STRESS PERIOD      7

 CONCENTRATION WILL BE SAVED ON UNIT 1025 AT END OF TIME STEP    1, STRESS PERIOD    7


  MASS BUDGET FOR ENTIRE MODEL AT END OF TIME STEP    1, STRESS PERIOD   7
  ---------------------------------------------------------------------------------------------------

     CUMULATIVE MASS      M       RATES FOR THIS TIME STEP      M/T          PACKAGE NAME    
     ------------------                 ------------------------                     ----------------

           IN:                                      IN:
           ---                                      ---
     STORAGE-AQUEOUS =           0.0000       STORAGE-AQUEOUS =           0.0000     MST             
               CHD_0 =           0.0000                 CHD_0 =           0.0000     SSM             
                 CNC =           0.0000                   CNC =           0.0000     CNC             

            TOTAL IN =           0.0000              TOTAL IN =           0.0000

          OUT:                                     OUT:
          ----                                     ----
     STORAGE-AQUEOUS =           0.0000       STORAGE-AQUEOUS =           0.0000     MST             
               CHD_0 =           0.0000                 CHD_0 =           0.0000     SSM             
                 CNC =           0.0000                   CNC =           0.0000     CNC             

           TOTAL OUT =           0.0000             TOTAL OUT =           0.0000

            IN - OUT =           0.0000              IN - OUT =           0.0000

 PERCENT DISCREPANCY =           0.00     PERCENT DISCREPANCY =           0.00




         TIME SUMMARY AT END OF TIME STEP    1 IN STRESS PERIOD    7
                    SECONDS     MINUTES      HOURS       DAYS        YEARS
                    -----------------------------------------------------------
   TIME STEP LENGTH  300.00      5.0000     8.33333E-02 3.47222E-03 9.50643E-06
 STRESS PERIOD TIME  300.00      5.0000     8.33333E-02 3.47222E-03 9.50643E-06
         TOTAL TIME  2100.0      35.000     0.58333     2.43056E-02 6.65450E-05


end timestep


start timestep kper="8" kstp="1" mode="normal"


 OUTPUT CONTROL FOR STRESS PERIOD 8 IS REPEATED USING SETTINGS FROM A PREVIOUS STRESS PERIOD.

 REUSING CNCS FROM LAST STRESS PERIOD
 UBDSV1 SAVING  STORAGE-AQUEOUS ON UNIT   1024 AT TIME STEP      1, STRESS PERIOD      8
 UBDSV1 SAVING     FLOW-JA-FACE ON UNIT   1024 AT TIME STEP      1, STRESS PERIOD      8
 UBDSV06 SAVING  SOURCE-SINK MIX IN MODEL SERIES2GWT       PACKAGE SERIES2GWT      CONNECTED TO MODEL SERIES2GWT       PACKAGE SSM              ON UNIT   1024 AT TIME STEP      1, STRESS PERIOD      8
 UBDSV06 SAVING              CNC IN MODEL SERIES2GWT       PACKAGE SERIES2GWT      CONNECTED TO MODEL SERIES2GWT       PACKAGE CNC              ON UNIT   1024 AT TIME STEP      1, STRESS PERIOD      8

 CONCENTRATION WILL BE SAVED ON UNIT 1025 AT END OF TIME STEP    1, STRESS PERIOD    8


  MASS BUDGET FOR ENTIRE MODEL AT END OF TIME STEP    1, STRESS PERIOD   8
  ---------------------------------------------------------------------------------------------------

     CUMULATIVE MASS      M       RATES FOR THIS TIME STEP      M/T          PACKAGE NAME    
     ------------------                 ------------------------                     ----------------

           IN:                                      IN:
           ---                                      ---
     STORAGE-AQUEOUS =           0.0000       STORAGE-AQUEOUS =           0.0000     MST             
               CHD_0 =           0.0000                 CHD_0 =           0.0000     SSM             
                 CNC =           0.0000                   CNC =           0.0000     CNC             

            TOTAL IN =           0.0000              TOTAL IN =           0.0000

          OUT:                                     OUT:
          ----                                     ----
     STORAGE-AQUEOUS =           0.0000       STORAGE-AQUEOUS =           0.0000     MST             
               CHD_0 =           0.0000                 CHD_0 =           0.0000     SSM             
                 CNC =           0.0000                   CNC =           0.0000     CNC             

           TOTAL OUT =           0.0000             TOTAL OUT =           0.0000

            IN - OUT =           0.0000              IN - OUT =           0.0000

 PERCENT DISCREPANCY =           0.00     PERCENT DISCREPANCY =           0.00




         TIME SUMMARY AT END OF TIME STEP    1 IN STRESS PERIOD    8
                    SECONDS     MINUTES      HOURS       DAYS        YEARS
                    -----------------------------------------------------------
   TIME STEP LENGTH  300.00      5.0000     8.33333E-02 3.47222E-03 9.50643E-06
 STRESS PERIOD TIME  300.00      5.0000     8.33333E-02 3.47222E-03 9.50643E-06
         TOTAL TIME  2400.0      40.000     0.66667     2.77778E-02 7.60514E-05


end timestep


start timestep kper="9" kstp="1" mode="normal"


 OUTPUT CONTROL FOR STRESS PERIOD 9 IS REPEATED USING SETTINGS FROM A PREVIOUS STRESS PERIOD.
 UBDSV1 SAVING  STORAGE-AQUEOUS ON UNIT   1024 AT TIME STEP      1, STRESS PERIOD      9
 UBDSV1 SAVING     FLOW-JA-FACE ON UNIT   1024 AT TIME STEP      1, STRESS PERIOD      9
 UBDSV06 SAVING  SOURCE-SINK MIX IN MODEL SERIES2GWT       PACKAGE SERIES2GWT      CONNECTED TO MODEL SERIES2GWT       PACKAGE SSM              ON UNIT   1024 AT TIME STEP      1, STRESS PERIOD      9
 UBDSV06 SAVING              CNC IN MODEL SERIES2GWT       PACKAGE SERIES2GWT      CONNECTED TO MODEL SERIES2GWT       PACKAGE CNC              ON UNIT   1024 AT TIME STEP      1, STRESS PERIOD      9

 CONCENTRATION WILL BE SAVED ON UNIT 1025 AT END OF TIME STEP    1, STRESS PERIOD    9


  MASS BUDGET FOR ENTIRE MODEL AT END OF TIME STEP    1, STRESS PERIOD   9
  ---------------------------------------------------------------------------------------------------

     CUMULATIVE MASS      M       RATES FOR THIS TIME STEP      M/T          PACKAGE NAME    
     ------------------                 ------------------------                     ----------------

           IN:                                      IN:
           ---                                      ---
     STORAGE-AQUEOUS =       2.6880E-03       STORAGE-AQUEOUS =       5.3761E-04     MST             
               CHD_0 =           0.0000                 CHD_0 =           0.0000     SSM             
                 CNC =          14.2819                   CNC =           2.8564     CNC             

            TOTAL IN =          14.2846              TOTAL IN =           2.8569

          OUT:                                     OUT:
          ----                                     ----
     STORAGE-AQUEOUS =          13.7424       STORAGE-AQUEOUS =           2.7485     MST             
               CHD_0 =       1.1777E-02                 CHD_0 =       2.3555E-03     SSM             
                 CNC =           0.0000                   CNC =           0.0000     CNC             

           TOTAL OUT =          13.7542             TOTAL OUT =           2.7508

            IN - OUT =           0.5304              IN - OUT =           0.1061

 PERCENT DISCREPANCY =           3.78     PERCENT DISCREPANCY =           3.78




         TIME SUMMARY AT END OF TIME STEP    1 IN STRESS PERIOD    9
                    SECONDS     MINUTES      HOURS       DAYS        YEARS
                    -----------------------------------------------------------
   TIME STEP LENGTH  300.00      5.0000     8.33333E-02 3.47222E-03 9.50643E-06
 STRESS PERIOD TIME  300.00      5.0000     8.33333E-02 3.47222E-03 9.50643E-06
         TOTAL TIME  2700.0      45.000     0.75000     3.12500E-02 8.55578E-05


end timestep


start timestep kper="10" kstp="1" mode="normal"


 OUTPUT CONTROL FOR STRESS PERIOD 10 IS REPEATED USING SETTINGS FROM A PREVIOUS STRESS PERIOD.

 REUSING CNCS FROM LAST STRESS PERIOD
 UBDSV1 SAVING  STORAGE-AQUEOUS ON UNIT   1024 AT TIME STEP      1, STRESS PERIOD     10
 UBDSV1 SAVING     FLOW-JA-FACE ON UNIT   1024 AT TIME STEP      1, STRESS PERIOD     10
 UBDSV06 SAVING  SOURCE-SINK MIX IN MODEL SERIES2GWT       PACKAGE SERIES2GWT      CONNECTED TO MODEL SERIES2GWT       PACKAGE SSM              ON UNIT   1024 AT TIME STEP      1, STRESS PERIOD     10
 UBDSV06 SAVING              CNC IN MODEL SERIES2GWT       PACKAGE SERIES2GWT      CONNECTED TO MODEL SERIES2GWT       PACKAGE CNC              ON UNIT   1024 AT TIME STEP      1, STRESS PERIOD     10

 CONCENTRATION WILL BE SAVED ON UNIT 1025 AT END OF TIME STEP    1, STRESS PERIOD   10


  MASS BUDGET FOR ENTIRE MODEL AT END OF TIME STEP    1, STRESS PERIOD  10
  ---------------------------------------------------------------------------------------------------

     CUMULATIVE MASS      M       RATES FOR THIS TIME STEP      M/T          PACKAGE NAME    
     ------------------                 ------------------------                     ----------------

           IN:                                      IN:
           ---                                      ---
     STORAGE-AQUEOUS =       3.4245E-03       STORAGE-AQUEOUS =       1.4730E-04     MST             
               CHD_0 =           0.0000                 CHD_0 =           0.0000     SSM             
                 CNC =          27.7923                   CNC =           2.7021     CNC             

            TOTAL IN =          27.7957              TOTAL IN =           2.7022

          OUT:                                     OUT:
          ----                                     ----
     STORAGE-AQUEOUS =          27.1828       STORAGE-AQUEOUS =           2.6881     MST             
               CHD_0 =       8.4670E-02                 CHD_0 =       1.4578E-02     SSM             
                 CNC =           0.0000                   CNC =           0.0000     CNC             

           TOTAL OUT =          27.2675             TOTAL OUT =           2.7027

            IN - OUT =           0.5282              IN - OUT =       4.3696E-04

 PERCENT DISCREPANCY =           1.92     PERCENT DISCREPANCY =          -0.02




         TIME SUMMARY AT END OF TIME STEP    1 IN STRESS PERIOD   10
                    SECONDS     MINUTES      HOURS       DAYS        YEARS
                    -----------------------------------------------------------
   TIME STEP LENGTH  300.00      5.0000     8.33333E-02 3.47222E-03 9.50643E-06
 STRESS PERIOD TIME  300.00      5.0000     8.33333E-02 3.47222E-03 9.50643E-06
         TOTAL TIME  3000.0      50.000     0.83333     3.47222E-02 9.50643E-05


end timestep


start timestep kper="11" kstp="1" mode="normal"


 OUTPUT CONTROL FOR STRESS PERIOD 11 IS REPEATED USING SETTINGS FROM A PREVIOUS STRESS PERIOD.

 REUSING CNCS FROM LAST STRESS PERIOD
 UBDSV1 SAVING  STORAGE-AQUEOUS ON UNIT   1024 AT TIME STEP      1, STRESS PERIOD     11
 UBDSV1 SAVING     FLOW-JA-FACE ON UNIT   1024 AT TIME STEP      1, STRESS PERIOD     11
 UBDSV06 SAVING  SOURCE-SINK MIX IN MODEL SERIES2GWT       PACKAGE SERIES2GWT      CONNECTED TO MODEL SERIES2GWT       PACKAGE SSM              ON UNIT   1024 AT TIME STEP      1, STRESS PERIOD     11
 UBDSV06 SAVING              CNC IN MODEL SERIES2GWT       PACKAGE SERIES2GWT      CONNECTED TO MODEL SERIES2GWT       PACKAGE CNC              ON UNIT   1024 AT TIME STEP      1, STRESS PERIOD     11

 CONCENTRATION WILL BE SAVED ON UNIT 1025 AT END OF TIME STEP    1, STRESS PERIOD   11


  MASS BUDGET FOR ENTIRE MODEL AT END OF TIME STEP    1, STRESS PERIOD  11
  ---------------------------------------------------------------------------------------------------

     CUMULATIVE MASS      M       RATES FOR THIS TIME STEP      M/T          PACKAGE NAME    
     ------------------                 ------------------------                     ----------------

           IN:                                      IN:
           ---                                      ---
     STORAGE-AQUEOUS =       3.9278E-03       STORAGE-AQUEOUS =       1.0065E-04     MST             
               CHD_0 =           0.0000                 CHD_0 =           0.0000     SSM             
                 CNC =          41.0669                   CNC =           2.6549     CNC             

            TOTAL IN =          41.0709              TOTAL IN =           2.6550

          OUT:                                     OUT:
          ----                                     ----
     STORAGE-AQUEOUS =          40.2017       STORAGE-AQUEOUS =           2.6038     MST             
               CHD_0 =           0.3442                 CHD_0 =       5.1904E-02     SSM             
                 CNC =           0.0000                   CNC =           0.0000     CNC             

           TOTAL OUT =          40.5459             TOTAL OUT =           2.6557

            IN - OUT =           0.5250              IN - OUT =       6.5081E-04

 PERCENT DISCREPANCY =           1.29     PERCENT DISCREPANCY =          -0.02




         TIME SUMMARY AT END OF TIME STEP    1 IN STRESS PERIOD   11
                    SECONDS     MINUTES      HOURS       DAYS        YEARS
                    -----------------------------------------------------------
   TIME STEP LENGTH  300.00      5.0000     8.33333E-02 3.47222E-03 9.50643E-06
 STRESS PERIOD TIME  300.00      5.0000     8.33333E-02 3.47222E-03 9.50643E-06
         TOTAL TIME  3300.0      55.000     0.91667     3.81944E-02 1.04571E-04


end timestep


start timestep kper="12" kstp="1" mode="normal"


 OUTPUT CONTROL FOR STRESS PERIOD 12 IS REPEATED USING SETTINGS FROM A PREVIOUS STRESS PERIOD.

 REUSING CNCS FROM LAST STRESS PERIOD
 UBDSV1 SAVING  STORAGE-AQUEOUS ON UNIT   1024 AT TIME STEP      1, STRESS PERIOD     12
 UBDSV1 SAVING     FLOW-JA-FACE ON UNIT   1024 AT TIME STEP      1, STRESS PERIOD     12
 UBDSV06 SAVING  SOURCE-SINK MIX IN MODEL SERIES2GWT       PACKAGE SERIES2GWT      CONNECTED TO MODEL SERIES2GWT       PACKAGE SSM              ON UNIT   1024 AT TIME STEP      1, STRESS PERIOD     12
 UBDSV06 SAVING              CNC IN MODEL SERIES2GWT       PACKAGE SERIES2GWT      CONNECTED TO MODEL SERIES2GWT       PACKAGE CNC              ON UNIT   1024 AT TIME STEP      1, STRESS PERIOD     12

 CONCENTRATION WILL BE SAVED ON UNIT 1025 AT END OF TIME STEP    1, STRESS PERIOD   12


  MASS BUDGET FOR ENTIRE MODEL AT END OF TIME STEP    1, STRESS PERIOD  12
  ---------------------------------------------------------------------------------------------------

     CUMULATIVE MASS      M       RATES FOR THIS TIME STEP      M/T          PACKAGE NAME    
     ------------------                 ------------------------                     ----------------

           IN:                                      IN:
           ---                                      ---
     STORAGE-AQUEOUS =       4.0667E-03       STORAGE-AQUEOUS =       2.7789E-05     MST             
               CHD_0 =           0.0000                 CHD_0 =           0.0000     SSM             
                 CNC =          54.2821                   CNC =           2.6430     CNC             

            TOTAL IN =          54.2862              TOTAL IN =           2.6431

          OUT:                                     OUT:
          ----                                     ----
     STORAGE-AQUEOUS =          52.7677       STORAGE-AQUEOUS =           2.5132     MST             
               CHD_0 =           0.9901                 CHD_0 =           0.1292     SSM             
                 CNC =           0.0000                   CNC =           0.0000     CNC             

           TOTAL OUT =          53.7579             TOTAL OUT =           2.6424

            IN - OUT =           0.5283              IN - OUT =       6.7696E-04

 PERCENT DISCREPANCY =           0.98     PERCENT DISCREPANCY =           0.03




         TIME SUMMARY AT END OF TIME STEP    1 IN STRESS PERIOD   12
                    SECONDS     MINUTES      HOURS       DAYS        YEARS
                    -----------------------------------------------------------
   TIME STEP LENGTH  300.00      5.0000     8.33333E-02 3.47222E-03 9.50643E-06
 STRESS PERIOD TIME  300.00      5.0000     8.33333E-02 3.47222E-03 9.50643E-06
         TOTAL TIME  3600.0      60.000      1.0000     4.16667E-02 1.14077E-04


end timestep


start timestep kper="13" kstp="1" mode="normal"


 OUTPUT CONTROL FOR STRESS PERIOD 13 IS REPEATED USING SETTINGS FROM A PREVIOUS STRESS PERIOD.

 REUSING CNCS FROM LAST STRESS PERIOD
 UBDSV1 SAVING  STORAGE-AQUEOUS ON UNIT   1024 AT TIME STEP      1, STRESS PERIOD     13
 UBDSV1 SAVING     FLOW-JA-FACE ON UNIT   1024 AT TIME STEP      1, STRESS PERIOD     13
 UBDSV06 SAVING  SOURCE-SINK MIX IN MODEL SERIES2GWT       PACKAGE SERIES2GWT      CONNECTED TO MODEL SERIES2GWT       PACKAGE SSM              ON UNIT   1024 AT TIME STEP      1, STRESS PERIOD     13
 UBDSV06 SAVING              CNC IN MODEL SERIES2GWT       PACKAGE SERIES2GWT      CONNECTED TO MODEL SERIES2GWT       PACKAGE CNC              ON UNIT   1024 AT TIME STEP      1, STRESS PERIOD     13

 CONCENTRATION WILL BE SAVED ON UNIT 1025 AT END OF TIME STEP    1, STRESS PERIOD   13


  MASS BUDGET FOR ENTIRE MODEL AT END OF TIME STEP    1, STRESS PERIOD  13
  ---------------------------------------------------------------------------------------------------

     CUMULATIVE MASS      M       RATES FOR THIS TIME STEP      M/T          PACKAGE NAME    
     ------------------                 ------------------------                     ----------------

           IN:                                      IN:
           ---                                      ---
     STORAGE-AQUEOUS =       4.1805E-03       STORAGE-AQUEOUS =       2.2757E-05     MST             
               CHD_0 =           0.0000                 CHD_0 =           0.0000     SSM             
                 CNC =          67.4787                   CNC =           2.6393     CNC             

            TOTAL IN =          67.4829              TOTAL IN =           2.6393

          OUT:                                     OUT:
          ----                                     ----
     STORAGE-AQUEOUS =          64.6799       STORAGE-AQUEOUS =           2.3824     MST             
               CHD_0 =           2.2704                 CHD_0 =           0.2561     SSM             
                 CNC =           0.0000                   CNC =           0.0000     CNC             

           TOTAL OUT =          66.9503             TOTAL OUT =           2.6385

            IN - OUT =           0.5326              IN - OUT =       8.5900E-04

 PERCENT DISCREPANCY =           0.79     PERCENT DISCREPANCY =           0.03




         TIME SUMMARY AT END OF TIME STEP    1 IN STRESS PERIOD   13
                    SECONDS     MINUTES      HOURS       DAYS        YEARS
                    -----------------------------------------------------------
   TIME STEP LENGTH  300.00      5.0000     8.33333E-02 3.47222E-03 9.50643E-06
 STRESS PERIOD TIME  300.00      5.0000     8.33333E-02 3.47222E-03 9.50643E-06
         TOTAL TIME  3900.0      65.000      1.0833     4.51389E-02 1.23584E-04


end timestep


start timestep kper="14" kstp="1" mode="normal"


 OUTPUT CONTROL FOR STRESS PERIOD 14 IS REPEATED USING SETTINGS FROM A PREVIOUS STRESS PERIOD.

 REUSING CNCS FROM LAST STRESS PERIOD
 UBDSV1 SAVING  STORAGE-AQUEOUS ON UNIT   1024 AT TIME STEP      1, STRESS PERIOD     14
 UBDSV1 SAVING     FLOW-JA-FACE ON UNIT   1024 AT TIME STEP      1, STRESS PERIOD     14
 UBDSV06 SAVING  SOURCE-SINK MIX IN MODEL SERIES2GWT       PACKAGE SERIES2GWT      CONNECTED TO MODEL SERIES2GWT       PACKAGE SSM              ON UNIT   1024 AT TIME STEP      1, STRESS PERIOD     14
 UBDSV06 SAVING              CNC IN MODEL SERIES2GWT       PACKAGE SERIES2GWT      CONNECTED TO MODEL SERIES2GWT       PACKAGE CNC              ON UNIT   1024 AT TIME STEP      1, STRESS PERIOD     14

 CONCENTRATION WILL BE SAVED ON UNIT 1025 AT END OF TIME STEP    1, STRESS PERIOD   14


  MASS BUDGET FOR ENTIRE MODEL AT END OF TIME STEP    1, STRESS PERIOD  14
  ---------------------------------------------------------------------------------------------------

     CUMULATIVE MASS      M       RATES FOR THIS TIME STEP      M/T          PACKAGE NAME    
     ------------------                 ------------------------                     ----------------

           IN:                                      IN:
           ---                                      ---
     STORAGE-AQUEOUS =       4.2884E-03       STORAGE-AQUEOUS =       2.1583E-05     MST             
               CHD_0 =           0.0000                 CHD_0 =           0.0000     SSM             
                 CNC =          80.6684                   CNC =           2.6379     CNC             

            TOTAL IN =          80.6727              TOTAL IN =           2.6380

          OUT:                                     OUT:
          ----                                     ----
     STORAGE-AQUEOUS =          75.7175       STORAGE-AQUEOUS =           2.2075     MST             
               CHD_0 =           4.4111                 CHD_0 =           0.4281     SSM             
                 CNC =           0.0000                   CNC =           0.0000     CNC             

           TOTAL OUT =          80.1286             TOTAL OUT =           2.6357

            IN - OUT =           0.5441              IN - OUT =       2.2923E-03

 PERCENT DISCREPANCY =           0.68     PERCENT DISCREPANCY =           0.09




         TIME SUMMARY AT END OF TIME STEP    1 IN STRESS PERIOD   14
                    SECONDS     MINUTES      HOURS       DAYS        YEARS
                    -----------------------------------------------------------
   TIME STEP LENGTH  300.00      5.0000     8.33333E-02 3.47222E-03 9.50643E-06
 STRESS PERIOD TIME  300.00      5.0000     8.33333E-02 3.47222E-03 9.50643E-06
         TOTAL TIME  4200.0      70.000      1.1667     4.86111E-02 1.33090E-04


end timestep


start timestep kper="15" kstp="1" mode="normal"


 OUTPUT CONTROL FOR STRESS PERIOD 15 IS REPEATED USING SETTINGS FROM A PREVIOUS STRESS PERIOD.

 REUSING CNCS FROM LAST STRESS PERIOD
 UBDSV1 SAVING  STORAGE-AQUEOUS ON UNIT   1024 AT TIME STEP      1, STRESS PERIOD     15
 UBDSV1 SAVING     FLOW-JA-FACE ON UNIT   1024 AT TIME STEP      1, STRESS PERIOD     15
 UBDSV06 SAVING  SOURCE-SINK MIX IN MODEL SERIES2GWT       PACKAGE SERIES2GWT      CONNECTED TO MODEL SERIES2GWT       PACKAGE SSM              ON UNIT   1024 AT TIME STEP      1, STRESS PERIOD     15
 UBDSV06 SAVING              CNC IN MODEL SERIES2GWT       PACKAGE SERIES2GWT      CONNECTED TO MODEL SERIES2GWT       PACKAGE CNC              ON UNIT   1024 AT TIME STEP      1, STRESS PERIOD     15

 CONCENTRATION WILL BE SAVED ON UNIT 1025 AT END OF TIME STEP    1, STRESS PERIOD   15


  MASS BUDGET FOR ENTIRE MODEL AT END OF TIME STEP    1, STRESS PERIOD  15
  ---------------------------------------------------------------------------------------------------

     CUMULATIVE MASS      M       RATES FOR THIS TIME STEP      M/T          PACKAGE NAME    
     ------------------                 ------------------------                     ----------------

           IN:                                      IN:
           ---                                      ---
     STORAGE-AQUEOUS =       4.3637E-03       STORAGE-AQUEOUS =       1.5057E-05     MST             
               CHD_0 =           0.0000                 CHD_0 =           0.0000     SSM             
                 CNC =          93.8554                   CNC =           2.6374     CNC             

            TOTAL IN =          93.8597              TOTAL IN =           2.6374

          OUT:                                     OUT:
          ----                                     ----
     STORAGE-AQUEOUS =          85.7344       STORAGE-AQUEOUS =           2.0034     MST             
               CHD_0 =           7.5732                 CHD_0 =           0.6324     SSM             
                 CNC =           0.0000                   CNC =           0.0000     CNC             

           TOTAL OUT =          93.3075             TOTAL OUT =           2.6358

            IN - OUT =           0.5522              IN - OUT =       1.6256E-03

 PERCENT DISCREPANCY =           0.59     PERCENT DISCREPANCY =           0.06




         TIME SUMMARY AT END OF TIME STEP    1 IN STRESS PERIOD   15
                    SECONDS     MINUTES      HOURS       DAYS        YEARS
                    -----------------------------------------------------------
   TIME STEP LENGTH  300.00      5.0000     8.33333E-02 3.47222E-03 9.50643E-06
 STRESS PERIOD TIME  300.00      5.0000     8.33333E-02 3.47222E-03 9.50643E-06
         TOTAL TIME  4500.0      75.000      1.2500     5.20833E-02 1.42596E-04


end timestep


start timestep kper="16" kstp="1" mode="normal"


 OUTPUT CONTROL FOR STRESS PERIOD 16 IS REPEATED USING SETTINGS FROM A PREVIOUS STRESS PERIOD.

 REUSING CNCS FROM LAST STRESS PERIOD
 UBDSV1 SAVING  STORAGE-AQUEOUS ON UNIT   1024 AT TIME STEP      1, STRESS PERIOD     16
 UBDSV1 SAVING     FLOW-JA-FACE ON UNIT   1024 AT TIME STEP      1, STRESS PERIOD     16
 UBDSV06 SAVING  SOURCE-SINK MIX IN MODEL SERIES2GWT       PACKAGE SERIES2GWT      CONNECTED TO MODEL SERIES2GWT       PACKAGE SSM              ON UNIT   1024 AT TIME STEP      1, STRESS PERIOD     16
 UBDSV06 SAVING              CNC IN MODEL SERIES2GWT       PACKAGE SERIES2GWT      CONNECTED TO MODEL SERIES2GWT       PACKAGE CNC              ON UNIT   1024 AT TIME STEP      1, STRESS PERIOD     16

 CONCENTRATION WILL BE SAVED ON UNIT 1025 AT END OF TIME STEP    1, STRESS PERIOD   16


  MASS BUDGET FOR ENTIRE MODEL AT END OF TIME STEP    1, STRESS PERIOD  16
  ---------------------------------------------------------------------------------------------------

     CUMULATIVE MASS      M       RATES FOR THIS TIME STEP      M/T          PACKAGE NAME    
     ------------------                 ------------------------                     ----------------

           IN:                                      IN:
           ---                                      ---
     STORAGE-AQUEOUS =       4.3650E-03       STORAGE-AQUEOUS =       2.5091E-07     MST             
               CHD_0 =           0.0000                 CHD_0 =           0.0000     SSM             
                 CNC =         107.0412                   CNC =           2.6372     CNC             

            TOTAL IN =         107.0456              TOTAL IN =           2.6372

          OUT:                                     OUT:
          ----                                     ----
     STORAGE-AQUEOUS =          94.6684       STORAGE-AQUEOUS =           1.7868     MST             
               CHD_0 =          11.8278                 CHD_0 =           0.8509     SSM             
                 CNC =           0.0000                   CNC =           0.0000     CNC             

           TOTAL OUT =         106.4962             TOTAL OUT =           2.6377

            IN - OUT =           0.5494              IN - OUT =       5.6405E-04

 PERCENT DISCREPANCY =           0.51     PERCENT DISCREPANCY =          -0.02




         TIME SUMMARY AT END OF TIME STEP    1 IN STRESS PERIOD   16
                    SECONDS     MINUTES      HOURS       DAYS        YEARS
                    -----------------------------------------------------------
   TIME STEP LENGTH  300.00      5.0000     8.33333E-02 3.47222E-03 9.50643E-06
 STRESS PERIOD TIME  300.00      5.0000     8.33333E-02 3.47222E-03 9.50643E-06
         TOTAL TIME  4800.0      80.000      1.3333     5.55556E-02 1.52103E-04


end timestep


start timestep kper="17" kstp="1" mode="normal"


 OUTPUT CONTROL FOR STRESS PERIOD 17 IS REPEATED USING SETTINGS FROM A PREVIOUS STRESS PERIOD.

 REUSING CNCS FROM LAST STRESS PERIOD
 UBDSV1 SAVING  STORAGE-AQUEOUS ON UNIT   1024 AT TIME STEP      1, STRESS PERIOD     17
 UBDSV1 SAVING     FLOW-JA-FACE ON UNIT   1024 AT TIME STEP      1, STRESS PERIOD     17
 UBDSV06 SAVING  SOURCE-SINK MIX IN MODEL SERIES2GWT       PACKAGE SERIES2GWT      CONNECTED TO MODEL SERIES2GWT       PACKAGE SSM              ON UNIT   1024 AT TIME STEP      1, STRESS PERIOD     17
 UBDSV06 SAVING              CNC IN MODEL SERIES2GWT       PACKAGE SERIES2GWT      CONNECTED TO MODEL SERIES2GWT       PACKAGE CNC              ON UNIT   1024 AT TIME STEP      1, STRESS PERIOD     17

 CONCENTRATION WILL BE SAVED ON UNIT 1025 AT END OF TIME STEP    1, STRESS PERIOD   17


  MASS BUDGET FOR ENTIRE MODEL AT END OF TIME STEP    1, STRESS PERIOD  17
  ---------------------------------------------------------------------------------------------------

     CUMULATIVE MASS      M       RATES FOR THIS TIME STEP      M/T          PACKAGE NAME    
     ------------------                 ------------------------                     ----------------

           IN:                                      IN:
           ---                                      ---
     STORAGE-AQUEOUS =       4.3666E-03       STORAGE-AQUEOUS =       3.3478E-07     MST             
               CHD_0 =           0.0000                 CHD_0 =           0.0000     SSM             
                 CNC =         120.2267                   CNC =           2.6371     CNC             

            TOTAL IN =         120.2311              TOTAL IN =           2.6371

          OUT:                                     OUT:
          ----                                     ----
     STORAGE-AQUEOUS =         102.5344       STORAGE-AQUEOUS =           1.5732     MST             
               CHD_0 =          17.1479                 CHD_0 =           1.0640     SSM             
                 CNC =           0.0000                   CNC =           0.0000     CNC             

           TOTAL OUT =         119.6823             TOTAL OUT =           2.6372

            IN - OUT =           0.5488              IN - OUT =       1.2562E-04

 PERCENT DISCREPANCY =           0.46     PERCENT DISCREPANCY =          -0.00




         TIME SUMMARY AT END OF TIME STEP    1 IN STRESS PERIOD   17
                    SECONDS     MINUTES      HOURS       DAYS        YEARS
                    -----------------------------------------------------------
   TIME STEP LENGTH  300.00      5.0000     8.33333E-02 3.47222E-03 9.50643E-06
 STRESS PERIOD TIME  300.00      5.0000     8.33333E-02 3.47222E-03 9.50643E-06
         TOTAL TIME  5100.0      85.000      1.4167     5.90278E-02 1.61609E-04


end timestep


start timestep kper="18" kstp="1" mode="normal"


 OUTPUT CONTROL FOR STRESS PERIOD 18 IS REPEATED USING SETTINGS FROM A PREVIOUS STRESS PERIOD.

 REUSING CNCS FROM LAST STRESS PERIOD
 UBDSV1 SAVING  STORAGE-AQUEOUS ON UNIT   1024 AT TIME STEP      1, STRESS PERIOD     18
 UBDSV1 SAVING     FLOW-JA-FACE ON UNIT   1024 AT TIME STEP      1, STRESS PERIOD     18
 UBDSV06 SAVING  SOURCE-SINK MIX IN MODEL SERIES2GWT       PACKAGE SERIES2GWT      CONNECTED TO MODEL SERIES2GWT       PACKAGE SSM              ON UNIT   1024 AT TIME STEP      1, STRESS PERIOD     18
 UBDSV06 SAVING              CNC IN MODEL SERIES2GWT       PACKAGE SERIES2GWT      CONNECTED TO MODEL SERIES2GWT       PACKAGE CNC              ON UNIT   1024 AT TIME STEP      1, STRESS PERIOD     18

 CONCENTRATION WILL BE SAVED ON UNIT 1025 AT END OF TIME STEP    1, STRESS PERIOD   18


  MASS BUDGET FOR ENTIRE MODEL AT END OF TIME STEP    1, STRESS PERIOD  18
  ---------------------------------------------------------------------------------------------------

     CUMULATIVE MASS      M       RATES FOR THIS TIME STEP      M/T          PACKAGE NAME    
     ------------------                 ------------------------                     ----------------

           IN:                                      IN:
           ---                                      ---
     STORAGE-AQUEOUS =       4.3674E-03       STORAGE-AQUEOUS =       1.4850E-07     MST             
               CHD_0 =           0.0000                 CHD_0 =           0.0000     SSM             
                 CNC =         133.4121                   CNC =           2.6371     CNC             

            TOTAL IN =         133.4164              TOTAL IN =           2.6371

          OUT:                                     OUT:
          ----                                     ----
     STORAGE-AQUEOUS =         109.4116       STORAGE-AQUEOUS =           1.3754     MST             
               CHD_0 =          23.4451                 CHD_0 =           1.2594     SSM             
                 CNC =           0.0000                   CNC =           0.0000     CNC             

           TOTAL OUT =         132.8567             TOTAL OUT =           2.6349

            IN - OUT =           0.5597              IN - OUT =       2.1921E-03

 PERCENT DISCREPANCY =           0.42     PERCENT DISCREPANCY =           0.08




         TIME SUMMARY AT END OF TIME STEP    1 IN STRESS PERIOD   18
                    SECONDS     MINUTES      HOURS       DAYS        YEARS
                    -----------------------------------------------------------
   TIME STEP LENGTH  300.00      5.0000     8.33333E-02 3.47222E-03 9.50643E-06
 STRESS PERIOD TIME  300.00      5.0000     8.33333E-02 3.47222E-03 9.50643E-06
         TOTAL TIME  5400.0      90.000      1.5000     6.25000E-02 1.71116E-04


end timestep


start timestep kper="19" kstp="1" mode="normal"


 OUTPUT CONTROL FOR STRESS PERIOD 19 IS REPEATED USING SETTINGS FROM A PREVIOUS STRESS PERIOD.

 REUSING CNCS FROM LAST STRESS PERIOD
 UBDSV1 SAVING  STORAGE-AQUEOUS ON UNIT   1024 AT TIME STEP      1, STRESS PERIOD     19
 UBDSV1 SAVING     FLOW-JA-FACE ON UNIT   1024 AT TIME STEP      1, STRESS PERIOD     19
 UBDSV06 SAVING  SOURCE-SINK MIX IN MODEL SERIES2GWT       PACKAGE SERIES2GWT      CONNECTED TO MODEL SERIES2GWT       PACKAGE SSM              ON UNIT   1024 AT TIME STEP      1, STRESS PERIOD     19
 UBDSV06 SAVING              CNC IN MODEL SERIES2GWT       PACKAGE SERIES2GWT      CONNECTED TO MODEL SERIES2GWT       PACKAGE CNC              ON UNIT   1024 AT TIME STEP      1, STRESS PERIOD     19

 CONCENTRATION WILL BE SAVED ON UNIT 1025 AT END OF TIME STEP    1, STRESS PERIOD   19


  MASS BUDGET FOR ENTIRE MODEL AT END OF TIME STEP    1, STRESS PERIOD  19
  ---------------------------------------------------------------------------------------------------

     CUMULATIVE MASS      M       RATES FOR THIS TIME STEP      M/T          PACKAGE NAME    
     ------------------                 ------------------------                     ----------------

           IN:                                      IN:
           ---                                      ---
     STORAGE-AQUEOUS =       4.3781E-03       STORAGE-AQUEOUS =       2.1358E-06     MST             
               CHD_0 =           0.0000                 CHD_0 =           0.0000     SSM             
                 CNC =         146.5974                   CNC =           2.6371     CNC             

            TOTAL IN =         146.6018              TOTAL IN =           2.6371

          OUT:                                     OUT:
          ----                                     ----
     STORAGE-AQUEOUS =         115.4258       STORAGE-AQUEOUS =           1.2028     MST             
               CHD_0 =          30.6126                 CHD_0 =           1.4335     SSM             
                 CNC =           0.0000                   CNC =           0.0000     CNC             

           TOTAL OUT =         146.0384             TOTAL OUT =           2.6363

            IN - OUT =           0.5634              IN - OUT =       7.2903E-04

 PERCENT DISCREPANCY =           0.39     PERCENT DISCREPANCY =           0.03




         TIME SUMMARY AT END OF TIME STEP    1 IN STRESS PERIOD   19
                    SECONDS     MINUTES      HOURS       DAYS        YEARS
                    -----------------------------------------------------------
   TIME STEP LENGTH  300.00      5.0000     8.33333E-02 3.47222E-03 9.50643E-06
 STRESS PERIOD TIME  300.00      5.0000     8.33333E-02 3.47222E-03 9.50643E-06
         TOTAL TIME  5700.0      95.000      1.5833     6.59722E-02 1.80622E-04


end timestep


start timestep kper="20" kstp="1" mode="normal"


 OUTPUT CONTROL FOR STRESS PERIOD 20 IS REPEATED USING SETTINGS FROM A PREVIOUS STRESS PERIOD.

 REUSING CNCS FROM LAST STRESS PERIOD
 UBDSV1 SAVING  STORAGE-AQUEOUS ON UNIT   1024 AT TIME STEP      1, STRESS PERIOD     20
 UBDSV1 SAVING     FLOW-JA-FACE ON UNIT   1024 AT TIME STEP      1, STRESS PERIOD     20
 UBDSV06 SAVING  SOURCE-SINK MIX IN MODEL SERIES2GWT       PACKAGE SERIES2GWT      CONNECTED TO MODEL SERIES2GWT       PACKAGE SSM              ON UNIT   1024 AT TIME STEP      1, STRESS PERIOD     20
 UBDSV06 SAVING              CNC IN MODEL SERIES2GWT       PACKAGE SERIES2GWT      CONNECTED TO MODEL SERIES2GWT       PACKAGE CNC              ON UNIT   1024 AT TIME STEP      1, STRESS PERIOD     20

 CONCENTRATION WILL BE SAVED ON UNIT 1025 AT END OF TIME STEP    1, STRESS PERIOD   20


  MASS BUDGET FOR ENTIRE MODEL AT END OF TIME STEP    1, STRESS PERIOD  20
  ---------------------------------------------------------------------------------------------------

     CUMULATIVE MASS      M       RATES FOR THIS TIME STEP      M/T          PACKAGE NAME    
     ------------------                 ------------------------                     ----------------

           IN:                                      IN:
           ---                                      ---
     STORAGE-AQUEOUS =       4.3815E-03       STORAGE-AQUEOUS =       6.8801E-07     MST             
               CHD_0 =           0.0000                 CHD_0 =           0.0000     SSM             
                 CNC =         159.7829                   CNC =           2.6371     CNC             

            TOTAL IN =         159.7873              TOTAL IN =           2.6371

          OUT:                                     OUT:
          ----                                     ----
     STORAGE-AQUEOUS =         120.6954       STORAGE-AQUEOUS =           1.0539     MST             
               CHD_0 =          38.5292                 CHD_0 =           1.5833     SSM             
                 CNC =           0.0000                   CNC =           0.0000     CNC             

           TOTAL OUT =         159.2246             TOTAL OUT =           2.6372

            IN - OUT =           0.5627              IN - OUT =       1.3892E-04

 PERCENT DISCREPANCY =           0.35     PERCENT DISCREPANCY =          -0.01




         TIME SUMMARY AT END OF TIME STEP    1 IN STRESS PERIOD   20
                    SECONDS     MINUTES      HOURS       DAYS        YEARS
                    -----------------------------------------------------------
   TIME STEP LENGTH  300.00      5.0000     8.33333E-02 3.47222E-03 9.50643E-06
 STRESS PERIOD TIME  300.00      5.0000     8.33333E-02 3.47222E-03 9.50643E-06
         TOTAL TIME  6000.0      100.00      1.6667     6.94444E-02 1.90129E-04


end timestep


start timestep kper="21" kstp="1" mode="normal"


 OUTPUT CONTROL FOR STRESS PERIOD 21 IS REPEATED USING SETTINGS FROM A PREVIOUS STRESS PERIOD.

 REUSING CNCS FROM LAST STRESS PERIOD
 UBDSV1 SAVING  STORAGE-AQUEOUS ON UNIT   1024 AT TIME STEP      1, STRESS PERIOD     21
 UBDSV1 SAVING     FLOW-JA-FACE ON UNIT   1024 AT TIME STEP      1, STRESS PERIOD     21
 UBDSV06 SAVING  SOURCE-SINK MIX IN MODEL SERIES2GWT       PACKAGE SERIES2GWT      CONNECTED TO MODEL SERIES2GWT       PACKAGE SSM              ON UNIT   1024 AT TIME STEP      1, STRESS PERIOD     21
 UBDSV06 SAVING              CNC IN MODEL SERIES2GWT       PACKAGE SERIES2GWT      CONNECTED TO MODEL SERIES2GWT       PACKAGE CNC              ON UNIT   1024 AT TIME STEP      1, STRESS PERIOD     21

 CONCENTRATION WILL BE SAVED ON UNIT 1025 AT END OF TIME STEP    1, STRESS PERIOD   21


  MASS BUDGET FOR ENTIRE MODEL AT END OF TIME STEP    1, STRESS PERIOD  21
  ---------------------------------------------------------------------------------------------------

     CUMULATIVE MASS      M       RATES FOR THIS TIME STEP      M/T          PACKAGE NAME    
     ------------------                 ------------------------                     ----------------

           IN:                                      IN:
           ---                                      ---
     STORAGE-AQUEOUS =       4.3908E-03       STORAGE-AQUEOUS =       1.8547E-06     MST             
               CHD_0 =           0.0000                 CHD_0 =           0.0000     SSM             
                 CNC =         172.9685                   CNC =           2.6371     CNC             

            TOTAL IN =         172.9729              TOTAL IN =           2.6371

          OUT:                                     OUT:
          ----                                     ----
     STORAGE-AQUEOUS =         125.3329       STORAGE-AQUEOUS =           0.9275     MST             
               CHD_0 =          47.0769                 CHD_0 =           1.7095     SSM             
                 CNC =           0.0000                   CNC =           0.0000     CNC             

           TOTAL OUT =         172.4099             TOTAL OUT =           2.6371

            IN - OUT =           0.5630              IN - OUT =       5.9977E-05

 PERCENT DISCREPANCY =           0.33     PERCENT DISCREPANCY =           0.00




         TIME SUMMARY AT END OF TIME STEP    1 IN STRESS PERIOD   21
                    SECONDS     MINUTES      HOURS       DAYS        YEARS
                    -----------------------------------------------------------
   TIME STEP LENGTH  300.00      5.0000     8.33333E-02 3.47222E-03 9.50643E-06
 STRESS PERIOD TIME  300.00      5.0000     8.33333E-02 3.47222E-03 9.50643E-06
         TOTAL TIME  6300.0      105.00      1.7500     7.29167E-02 1.99635E-04


end timestep


start timestep kper="22" kstp="1" mode="normal"


 OUTPUT CONTROL FOR STRESS PERIOD 22 IS REPEATED USING SETTINGS FROM A PREVIOUS STRESS PERIOD.

 REUSING CNCS FROM LAST STRESS PERIOD
 UBDSV1 SAVING  STORAGE-AQUEOUS ON UNIT   1024 AT TIME STEP      1, STRESS PERIOD     22
 UBDSV1 SAVING     FLOW-JA-FACE ON UNIT   1024 AT TIME STEP      1, STRESS PERIOD     22
 UBDSV06 SAVING  SOURCE-SINK MIX IN MODEL SERIES2GWT       PACKAGE SERIES2GWT      CONNECTED TO MODEL SERIES2GWT       PACKAGE SSM              ON UNIT   1024 AT TIME STEP      1, STRESS PERIOD     22
 UBDSV06 SAVING              CNC IN MODEL SERIES2GWT       PACKAGE SERIES2GWT      CONNECTED TO MODEL SERIES2GWT       PACKAGE CNC              ON UNIT   1024 AT TIME STEP      1, STRESS PERIOD     22

 CONCENTRATION WILL BE SAVED ON UNIT 1025 AT END OF TIME STEP    1, STRESS PERIOD   22


  MASS BUDGET FOR ENTIRE MODEL AT END OF TIME STEP    1, STRESS PERIOD  22
  ---------------------------------------------------------------------------------------------------

     CUMULATIVE MASS      M       RATES FOR THIS TIME STEP      M/T          PACKAGE NAME    
     ------------------                 ------------------------                     ----------------

           IN:                                      IN:
           ---                                      ---
     STORAGE-AQUEOUS =       4.4010E-03       STORAGE-AQUEOUS =       2.0518E-06     MST             
               CHD_0 =           0.0000                 CHD_0 =           0.0000     SSM             
                 CNC =         186.1542                   CNC =           2.6371     CNC             

            TOTAL IN =         186.1586              TOTAL IN =           2.6371

          OUT:                                     OUT:
          ----                                     ----
     STORAGE-AQUEOUS =         129.4392       STORAGE-AQUEOUS =           0.8213     MST             
               CHD_0 =          56.1563                 CHD_0 =           1.8159     SSM             
                 CNC =           0.0000                   CNC =           0.0000     CNC             

           TOTAL OUT =         185.5955             TOTAL OUT =           2.6371

            IN - OUT =           0.5631              IN - OUT =       1.3366E-05

 PERCENT DISCREPANCY =           0.30     PERCENT DISCREPANCY =           0.00




         TIME SUMMARY AT END OF TIME STEP    1 IN STRESS PERIOD   22
                    SECONDS     MINUTES      HOURS       DAYS        YEARS
                    -----------------------------------------------------------
   TIME STEP LENGTH  300.00      5.0000     8.33333E-02 3.47222E-03 9.50643E-06
 STRESS PERIOD TIME  300.00      5.0000     8.33333E-02 3.47222E-03 9.50643E-06
         TOTAL TIME  6600.0      110.00      1.8333     7.63889E-02 2.09141E-04


end timestep


start timestep kper="23" kstp="1" mode="normal"


 OUTPUT CONTROL FOR STRESS PERIOD 23 IS REPEATED USING SETTINGS FROM A PREVIOUS STRESS PERIOD.

 REUSING CNCS FROM LAST STRESS PERIOD
 UBDSV1 SAVING  STORAGE-AQUEOUS ON UNIT   1024 AT TIME STEP      1, STRESS PERIOD     23
 UBDSV1 SAVING     FLOW-JA-FACE ON UNIT   1024 AT TIME STEP      1, STRESS PERIOD     23
 UBDSV06 SAVING  SOURCE-SINK MIX IN MODEL SERIES2GWT       PACKAGE SERIES2GWT      CONNECTED TO MODEL SERIES2GWT       PACKAGE SSM              ON UNIT   1024 AT TIME STEP      1, STRESS PERIOD     23
 UBDSV06 SAVING              CNC IN MODEL SERIES2GWT       PACKAGE SERIES2GWT      CONNECTED TO MODEL SERIES2GWT       PACKAGE CNC              ON UNIT   1024 AT TIME STEP      1, STRESS PERIOD     23

 CONCENTRATION WILL BE SAVED ON UNIT 1025 AT END OF TIME STEP    1, STRESS PERIOD   23


  MASS BUDGET FOR ENTIRE MODEL AT END OF TIME STEP    1, STRESS PERIOD  23
  ---------------------------------------------------------------------------------------------------

     CUMULATIVE MASS      M       RATES FOR THIS TIME STEP      M/T          PACKAGE NAME    
     ------------------                 ------------------------                     ----------------

           IN:                                      IN:
           ---                                      ---
     STORAGE-AQUEOUS =       4.4276E-03       STORAGE-AQUEOUS =       5.3205E-06     MST             
               CHD_0 =           0.0000                 CHD_0 =           0.0000     SSM             
                 CNC =         199.3400                   CNC =           2.6372     CNC             

            TOTAL IN =         199.3445              TOTAL IN =           2.6372

          OUT:                                     OUT:
          ----                                     ----
     STORAGE-AQUEOUS =         133.0972       STORAGE-AQUEOUS =           0.7316     MST             
               CHD_0 =          65.6842                 CHD_0 =           1.9056     SSM             
                 CNC =           0.0000                   CNC =           0.0000     CNC             

           TOTAL OUT =         198.7814             TOTAL OUT =           2.6372

            IN - OUT =           0.5631              IN - OUT =       1.0195E-06

 PERCENT DISCREPANCY =           0.28     PERCENT DISCREPANCY =           0.00




         TIME SUMMARY AT END OF TIME STEP    1 IN STRESS PERIOD   23
                    SECONDS     MINUTES      HOURS       DAYS        YEARS
                    -----------------------------------------------------------
   TIME STEP LENGTH  300.00      5.0000     8.33333E-02 3.47222E-03 9.50643E-06
 STRESS PERIOD TIME  300.00      5.0000     8.33333E-02 3.47222E-03 9.50643E-06
         TOTAL TIME  6900.0      115.00      1.9167     7.98611E-02 2.18648E-04


end timestep


start timestep kper="24" kstp="1" mode="normal"


 OUTPUT CONTROL FOR STRESS PERIOD 24 IS REPEATED USING SETTINGS FROM A PREVIOUS STRESS PERIOD.

 REUSING CNCS FROM LAST STRESS PERIOD
 UBDSV1 SAVING  STORAGE-AQUEOUS ON UNIT   1024 AT TIME STEP      1, STRESS PERIOD     24
 UBDSV1 SAVING     FLOW-JA-FACE ON UNIT   1024 AT TIME STEP      1, STRESS PERIOD     24
 UBDSV06 SAVING  SOURCE-SINK MIX IN MODEL SERIES2GWT       PACKAGE SERIES2GWT      CONNECTED TO MODEL SERIES2GWT       PACKAGE SSM              ON UNIT   1024 AT TIME STEP      1, STRESS PERIOD     24
 UBDSV06 SAVING              CNC IN MODEL SERIES2GWT       PACKAGE SERIES2GWT      CONNECTED TO MODEL SERIES2GWT       PACKAGE CNC              ON UNIT   1024 AT TIME STEP      1, STRESS PERIOD     24

 CONCENTRATION WILL BE SAVED ON UNIT 1025 AT END OF TIME STEP    1, STRESS PERIOD   24


  MASS BUDGET FOR ENTIRE MODEL AT END OF TIME STEP    1, STRESS PERIOD  24
  ---------------------------------------------------------------------------------------------------

     CUMULATIVE MASS      M       RATES FOR THIS TIME STEP      M/T          PACKAGE NAME    
     ------------------                 ------------------------                     ----------------

           IN:                                      IN:
           ---                                      ---
     STORAGE-AQUEOUS =       4.4502E-03       STORAGE-AQUEOUS =       4.5169E-06     MST             
               CHD_0 =           0.0000                 CHD_0 =           0.0000     SSM             
                 CNC =         212.5260                   CNC =           2.6372     CNC             

            TOTAL IN =         212.5305              TOTAL IN =           2.6372

          OUT:                                     OUT:
          ----                                     ----
     STORAGE-AQUEOUS =         136.3751       STORAGE-AQUEOUS =           0.6556     MST             
               CHD_0 =          75.5926                 CHD_0 =           1.9817     SSM             
                 CNC =           0.0000                   CNC =           0.0000     CNC             

           TOTAL OUT =         211.9676             TOTAL OUT =           2.6372

            IN - OUT =           0.5628              IN - OUT =       4.6541E-05

 PERCENT DISCREPANCY =           0.27     PERCENT DISCREPANCY =          -0.00




         TIME SUMMARY AT END OF TIME STEP    1 IN STRESS PERIOD   24
                    SECONDS     MINUTES      HOURS       DAYS        YEARS
                    -----------------------------------------------------------
   TIME STEP LENGTH  300.00      5.0000     8.33333E-02 3.47222E-03 9.50643E-06
 STRESS PERIOD TIME  300.00      5.0000     8.33333E-02 3.47222E-03 9.50643E-06
         TOTAL TIME  7200.0      120.00      2.0000     8.33333E-02 2.28154E-04


end timestep


start timestep kper="25" kstp="1" mode="normal"


 OUTPUT CONTROL FOR STRESS PERIOD 25 IS REPEATED USING SETTINGS FROM A PREVIOUS STRESS PERIOD.

 REUSING CNCS FROM LAST STRESS PERIOD
 UBDSV1 SAVING  STORAGE-AQUEOUS ON UNIT   1024 AT TIME STEP      1, STRESS PERIOD     25
 UBDSV1 SAVING     FLOW-JA-FACE ON UNIT   1024 AT TIME STEP      1, STRESS PERIOD     25
 UBDSV06 SAVING  SOURCE-SINK MIX IN MODEL SERIES2GWT       PACKAGE SERIES2GWT      CONNECTED TO MODEL SERIES2GWT       PACKAGE SSM              ON UNIT   1024 AT TIME STEP      1, STRESS PERIOD     25
 UBDSV06 SAVING              CNC IN MODEL SERIES2GWT       PACKAGE SERIES2GWT      CONNECTED TO MODEL SERIES2GWT       PACKAGE CNC              ON UNIT   1024 AT TIME STEP      1, STRESS PERIOD     25

 CONCENTRATION WILL BE SAVED ON UNIT 1025 AT END OF TIME STEP    1, STRESS PERIOD   25


  MASS BUDGET FOR ENTIRE MODEL AT END OF TIME STEP    1, STRESS PERIOD  25
  ---------------------------------------------------------------------------------------------------

     CUMULATIVE MASS      M       RATES FOR THIS TIME STEP      M/T          PACKAGE NAME    
     ------------------                 ------------------------                     ----------------

           IN:                                      IN:
           ---                                      ---
     STORAGE-AQUEOUS =       4.4955E-03       STORAGE-AQUEOUS =       9.0599E-06     MST             
               CHD_0 =           0.0000                 CHD_0 =           0.0000     SSM             
                 CNC =         225.7121                   CNC =           2.6372     CNC             

            TOTAL IN =         225.7166              TOTAL IN =           2.6372

          OUT:                                     OUT:
          ----                                     ----
     STORAGE-AQUEOUS =         139.3275       STORAGE-AQUEOUS =           0.5905     MST             
               CHD_0 =          85.8267                 CHD_0 =           2.0468     SSM             
                 CNC =           0.0000                   CNC =           0.0000     CNC             

           TOTAL OUT =         225.1542             TOTAL OUT =           2.6373

            IN - OUT =           0.5624              IN - OUT =       8.0321E-05

 PERCENT DISCREPANCY =           0.25     PERCENT DISCREPANCY =          -0.00




         TIME SUMMARY AT END OF TIME STEP    1 IN STRESS PERIOD   25
                    SECONDS     MINUTES      HOURS       DAYS        YEARS
                    -----------------------------------------------------------
   TIME STEP LENGTH  300.00      5.0000     8.33333E-02 3.47222E-03 9.50643E-06
 STRESS PERIOD TIME  300.00      5.0000     8.33333E-02 3.47222E-03 9.50643E-06
         TOTAL TIME  7500.0      125.00      2.0833     8.68056E-02 2.37661E-04


end timestep


start timestep kper="26" kstp="1" mode="normal"


 OUTPUT CONTROL FOR STRESS PERIOD 26 IS REPEATED USING SETTINGS FROM A PREVIOUS STRESS PERIOD.

 REUSING CNCS FROM LAST STRESS PERIOD
 UBDSV1 SAVING  STORAGE-AQUEOUS ON UNIT   1024 AT TIME STEP      1, STRESS PERIOD     26
 UBDSV1 SAVING     FLOW-JA-FACE ON UNIT   1024 AT TIME STEP      1, STRESS PERIOD     26
[...]

 REUSING CNCS FROM LAST STRESS PERIOD
 UBDSV1 SAVING  STORAGE-AQUEOUS ON UNIT   1024 AT TIME STEP      1, STRESS PERIOD     57
 UBDSV1 SAVING     FLOW-JA-FACE ON UNIT   1024 AT TIME STEP      1, STRESS PERIOD     57
 UBDSV06 SAVING  SOURCE-SINK MIX IN MODEL SERIES2GWT       PACKAGE SERIES2GWT      CONNECTED TO MODEL SERIES2GWT       PACKAGE SSM              ON UNIT   1024 AT TIME STEP      1, STRESS PERIOD     57
 UBDSV06 SAVING              CNC IN MODEL SERIES2GWT       PACKAGE SERIES2GWT      CONNECTED TO MODEL SERIES2GWT       PACKAGE CNC              ON UNIT   1024 AT TIME STEP      1, STRESS PERIOD     57

 CONCENTRATION WILL BE SAVED ON UNIT 1025 AT END OF TIME STEP    1, STRESS PERIOD   57


  MASS BUDGET FOR ENTIRE MODEL AT END OF TIME STEP    1, STRESS PERIOD  57
  ---------------------------------------------------------------------------------------------------

     CUMULATIVE MASS      M       RATES FOR THIS TIME STEP      M/T          PACKAGE NAME    
     ------------------                 ------------------------                     ----------------

           IN:                                      IN:
           ---                                      ---
     STORAGE-AQUEOUS =          65.5300       STORAGE-AQUEOUS =           2.3727     MST             
               CHD_0 =           0.0000                 CHD_0 =           0.0000     SSM             
                 CNC =         581.7623                   CNC =           0.0000     CNC             

            TOTAL IN =         647.2923              TOTAL IN =           2.3727

          OUT:                                     OUT:
          ----                                     ----
     STORAGE-AQUEOUS =         165.2255       STORAGE-AQUEOUS =       1.0572E-02     MST             
               CHD_0 =         479.5165                 CHD_0 =           2.3610     SSM             
                 CNC =           1.9561                   CNC =       2.4537E-03     CNC             

           TOTAL OUT =         646.6981             TOTAL OUT =           2.3740

            IN - OUT =           0.5941              IN - OUT =       1.2777E-03

 PERCENT DISCREPANCY =           0.09     PERCENT DISCREPANCY =          -0.05




         TIME SUMMARY AT END OF TIME STEP    1 IN STRESS PERIOD   57
                    SECONDS     MINUTES      HOURS       DAYS        YEARS
                    -----------------------------------------------------------
   TIME STEP LENGTH  300.00      5.0000     8.33333E-02 3.47222E-03 9.50643E-06
 STRESS PERIOD TIME  300.00      5.0000     8.33333E-02 3.47222E-03 9.50643E-06
         TOTAL TIME  17100.      285.00      4.7500     0.19792     5.41866E-04


end timestep


start timestep kper="58" kstp="1" mode="normal"


 OUTPUT CONTROL FOR STRESS PERIOD 58 IS REPEATED USING SETTINGS FROM A PREVIOUS STRESS PERIOD.

 REUSING CNCS FROM LAST STRESS PERIOD
 UBDSV1 SAVING  STORAGE-AQUEOUS ON UNIT   1024 AT TIME STEP      1, STRESS PERIOD     58
 UBDSV1 SAVING     FLOW-JA-FACE ON UNIT   1024 AT TIME STEP      1, STRESS PERIOD     58
 UBDSV06 SAVING  SOURCE-SINK MIX IN MODEL SERIES2GWT       PACKAGE SERIES2GWT      CONNECTED TO MODEL SERIES2GWT       PACKAGE SSM              ON UNIT   1024 AT TIME STEP      1, STRESS PERIOD     58
 UBDSV06 SAVING              CNC IN MODEL SERIES2GWT       PACKAGE SERIES2GWT      CONNECTED TO MODEL SERIES2GWT       PACKAGE CNC              ON UNIT   1024 AT TIME STEP      1, STRESS PERIOD     58

 CONCENTRATION WILL BE SAVED ON UNIT 1025 AT END OF TIME STEP    1, STRESS PERIOD   58


  MASS BUDGET FOR ENTIRE MODEL AT END OF TIME STEP    1, STRESS PERIOD  58
  ---------------------------------------------------------------------------------------------------

     CUMULATIVE MASS      M       RATES FOR THIS TIME STEP      M/T          PACKAGE NAME    
     ------------------                 ------------------------                     ----------------

           IN:                                      IN:
           ---                                      ---
     STORAGE-AQUEOUS =          76.5127       STORAGE-AQUEOUS =           2.1965     MST             
               CHD_0 =           0.0000                 CHD_0 =           0.0000     SSM             
                 CNC =         581.7623                   CNC =           0.0000     CNC             

            TOTAL IN =         658.2750              TOTAL IN =           2.1965

          OUT:                                     OUT:
          ----                                     ----
     STORAGE-AQUEOUS =         165.2691       STORAGE-AQUEOUS =       8.7195E-03     MST             
               CHD_0 =         490.4459                 CHD_0 =           2.1859     SSM             
                 CNC =           1.9618                   CNC =       1.1260E-03     CNC             

           TOTAL OUT =         657.6768             TOTAL OUT =           2.1957

            IN - OUT =           0.5982              IN - OUT =       8.1815E-04

 PERCENT DISCREPANCY =           0.09     PERCENT DISCREPANCY =           0.04




         TIME SUMMARY AT END OF TIME STEP    1 IN STRESS PERIOD   58
                    SECONDS     MINUTES      HOURS       DAYS        YEARS
                    -----------------------------------------------------------
   TIME STEP LENGTH  300.00      5.0000     8.33333E-02 3.47222E-03 9.50643E-06
 STRESS PERIOD TIME  300.00      5.0000     8.33333E-02 3.47222E-03 9.50643E-06
         TOTAL TIME  17400.      290.00      4.8333     0.20139     5.51373E-04


end timestep


start timestep kper="59" kstp="1" mode="normal"


 OUTPUT CONTROL FOR STRESS PERIOD 59 IS REPEATED USING SETTINGS FROM A PREVIOUS STRESS PERIOD.

 REUSING CNCS FROM LAST STRESS PERIOD
 UBDSV1 SAVING  STORAGE-AQUEOUS ON UNIT   1024 AT TIME STEP      1, STRESS PERIOD     59
 UBDSV1 SAVING     FLOW-JA-FACE ON UNIT   1024 AT TIME STEP      1, STRESS PERIOD     59
 UBDSV06 SAVING  SOURCE-SINK MIX IN MODEL SERIES2GWT       PACKAGE SERIES2GWT      CONNECTED TO MODEL SERIES2GWT       PACKAGE SSM              ON UNIT   1024 AT TIME STEP      1, STRESS PERIOD     59
 UBDSV06 SAVING              CNC IN MODEL SERIES2GWT       PACKAGE SERIES2GWT      CONNECTED TO MODEL SERIES2GWT       PACKAGE CNC              ON UNIT   1024 AT TIME STEP      1, STRESS PERIOD     59

 CONCENTRATION WILL BE SAVED ON UNIT 1025 AT END OF TIME STEP    1, STRESS PERIOD   59


  MASS BUDGET FOR ENTIRE MODEL AT END OF TIME STEP    1, STRESS PERIOD  59
  ---------------------------------------------------------------------------------------------------

     CUMULATIVE MASS      M       RATES FOR THIS TIME STEP      M/T          PACKAGE NAME    
     ------------------                 ------------------------                     ----------------

           IN:                                      IN:
           ---                                      ---
     STORAGE-AQUEOUS =          86.4579       STORAGE-AQUEOUS =           1.9890     MST             
               CHD_0 =           0.0000                 CHD_0 =           0.0000     SSM             
                 CNC =         581.7623                   CNC =           0.0000     CNC             

            TOTAL IN =         668.2202              TOTAL IN =           1.9890

          OUT:                                     OUT:
          ----                                     ----
     STORAGE-AQUEOUS =         165.3044       STORAGE-AQUEOUS =       7.0537E-03     MST             
               CHD_0 =         500.3601                 CHD_0 =           1.9828     SSM             
                 CNC =           1.9645                   CNC =       5.4842E-04     CNC             

           TOTAL OUT =         667.6290             TOTAL OUT =           1.9904

            IN - OUT =           0.5912              IN - OUT =       1.4073E-03

 PERCENT DISCREPANCY =           0.09     PERCENT DISCREPANCY =          -0.07




         TIME SUMMARY AT END OF TIME STEP    1 IN STRESS PERIOD   59
                    SECONDS     MINUTES      HOURS       DAYS        YEARS
                    -----------------------------------------------------------
   TIME STEP LENGTH  300.00      5.0000     8.33333E-02 3.47222E-03 9.50643E-06
 STRESS PERIOD TIME  300.00      5.0000     8.33333E-02 3.47222E-03 9.50643E-06
         TOTAL TIME  17700.      295.00      4.9167     0.20486     5.60879E-04


end timestep


start timestep kper="60" kstp="1" mode="normal"


 OUTPUT CONTROL FOR STRESS PERIOD 60 IS REPEATED USING SETTINGS FROM A PREVIOUS STRESS PERIOD.

 REUSING CNCS FROM LAST STRESS PERIOD
 UBDSV1 SAVING  STORAGE-AQUEOUS ON UNIT   1024 AT TIME STEP      1, STRESS PERIOD     60
 UBDSV1 SAVING     FLOW-JA-FACE ON UNIT   1024 AT TIME STEP      1, STRESS PERIOD     60
 UBDSV06 SAVING  SOURCE-SINK MIX IN MODEL SERIES2GWT       PACKAGE SERIES2GWT      CONNECTED TO MODEL SERIES2GWT       PACKAGE SSM              ON UNIT   1024 AT TIME STEP      1, STRESS PERIOD     60
 UBDSV06 SAVING              CNC IN MODEL SERIES2GWT       PACKAGE SERIES2GWT      CONNECTED TO MODEL SERIES2GWT       PACKAGE CNC              ON UNIT   1024 AT TIME STEP      1, STRESS PERIOD     60

 CONCENTRATION WILL BE SAVED ON UNIT 1025 AT END OF TIME STEP    1, STRESS PERIOD   60


  MASS BUDGET FOR ENTIRE MODEL AT END OF TIME STEP    1, STRESS PERIOD  60
  ---------------------------------------------------------------------------------------------------

     CUMULATIVE MASS      M       RATES FOR THIS TIME STEP      M/T          PACKAGE NAME    
     ------------------                 ------------------------                     ----------------

           IN:                                      IN:
           ---                                      ---
     STORAGE-AQUEOUS =          95.3175       STORAGE-AQUEOUS =           1.7719     MST             
               CHD_0 =           0.0000                 CHD_0 =           0.0000     SSM             
                 CNC =         581.7623                   CNC =           0.0000     CNC             

            TOTAL IN =         677.0798              TOTAL IN =           1.7719

          OUT:                                     OUT:
          ----                                     ----
     STORAGE-AQUEOUS =         165.3326       STORAGE-AQUEOUS =       5.6290E-03     MST             
               CHD_0 =         509.1867                 CHD_0 =           1.7653     SSM             
                 CNC =           1.9659                   CNC =       2.7767E-04     CNC             

           TOTAL OUT =         676.4851             TOTAL OUT =           1.7712

            IN - OUT =           0.5946              IN - OUT =       6.9108E-04

 PERCENT DISCREPANCY =           0.09     PERCENT DISCREPANCY =           0.04




         TIME SUMMARY AT END OF TIME STEP    1 IN STRESS PERIOD   60
                    SECONDS     MINUTES      HOURS       DAYS        YEARS
                    -----------------------------------------------------------
   TIME STEP LENGTH  300.00      5.0000     8.33333E-02 3.47222E-03 9.50643E-06
 STRESS PERIOD TIME  300.00      5.0000     8.33333E-02 3.47222E-03 9.50643E-06
         TOTAL TIME  18000.      300.00      5.0000     0.20833     5.70386E-04


end timestep


start timestep kper="61" kstp="1" mode="normal"


 OUTPUT CONTROL FOR STRESS PERIOD 61 IS REPEATED USING SETTINGS FROM A PREVIOUS STRESS PERIOD.

 REUSING CNCS FROM LAST STRESS PERIOD
 UBDSV1 SAVING  STORAGE-AQUEOUS ON UNIT   1024 AT TIME STEP      1, STRESS PERIOD     61
 UBDSV1 SAVING     FLOW-JA-FACE ON UNIT   1024 AT TIME STEP      1, STRESS PERIOD     61
 UBDSV06 SAVING  SOURCE-SINK MIX IN MODEL SERIES2GWT       PACKAGE SERIES2GWT      CONNECTED TO MODEL SERIES2GWT       PACKAGE SSM              ON UNIT   1024 AT TIME STEP      1, STRESS PERIOD     61
 UBDSV06 SAVING              CNC IN MODEL SERIES2GWT       PACKAGE SERIES2GWT      CONNECTED TO MODEL SERIES2GWT       PACKAGE CNC              ON UNIT   1024 AT TIME STEP      1, STRESS PERIOD     61

 CONCENTRATION WILL BE SAVED ON UNIT 1025 AT END OF TIME STEP    1, STRESS PERIOD   61


  MASS BUDGET FOR ENTIRE MODEL AT END OF TIME STEP    1, STRESS PERIOD  61
  ---------------------------------------------------------------------------------------------------

     CUMULATIVE MASS      M       RATES FOR THIS TIME STEP      M/T          PACKAGE NAME    
     ------------------                 ------------------------                     ----------------

           IN:                                      IN:
           ---                                      ---
     STORAGE-AQUEOUS =         103.1094       STORAGE-AQUEOUS =           1.5584     MST             
               CHD_0 =           0.0000                 CHD_0 =           0.0000     SSM             
                 CNC =         581.7623                   CNC =           0.0000     CNC             

            TOTAL IN =         684.8717              TOTAL IN =           1.5584

          OUT:                                     OUT:
          ----                                     ----
     STORAGE-AQUEOUS =         165.3548       STORAGE-AQUEOUS =       4.4553E-03     MST             
               CHD_0 =         516.9579                 CHD_0 =           1.5542     SSM             
                 CNC =           1.9666                   CNC =       1.4449E-04     CNC             

           TOTAL OUT =         684.2793             TOTAL OUT =           1.5588

            IN - OUT =           0.5924              IN - OUT =       4.5686E-04

 PERCENT DISCREPANCY =           0.09     PERCENT DISCREPANCY =          -0.03




         TIME SUMMARY AT END OF TIME STEP    1 IN STRESS PERIOD   61
                    SECONDS     MINUTES      HOURS       DAYS        YEARS
                    -----------------------------------------------------------
   TIME STEP LENGTH  300.00      5.0000     8.33333E-02 3.47222E-03 9.50643E-06
 STRESS PERIOD TIME  300.00      5.0000     8.33333E-02 3.47222E-03 9.50643E-06
         TOTAL TIME  18300.      305.00      5.0833     0.21181     5.79892E-04


end timestep


start timestep kper="62" kstp="1" mode="normal"


 OUTPUT CONTROL FOR STRESS PERIOD 62 IS REPEATED USING SETTINGS FROM A PREVIOUS STRESS PERIOD.

 REUSING CNCS FROM LAST STRESS PERIOD
 UBDSV1 SAVING  STORAGE-AQUEOUS ON UNIT   1024 AT TIME STEP      1, STRESS PERIOD     62
 UBDSV1 SAVING     FLOW-JA-FACE ON UNIT   1024 AT TIME STEP      1, STRESS PERIOD     62
 UBDSV06 SAVING  SOURCE-SINK MIX IN MODEL SERIES2GWT       PACKAGE SERIES2GWT      CONNECTED TO MODEL SERIES2GWT       PACKAGE SSM              ON UNIT   1024 AT TIME STEP      1, STRESS PERIOD     62
 UBDSV06 SAVING              CNC IN MODEL SERIES2GWT       PACKAGE SERIES2GWT      CONNECTED TO MODEL SERIES2GWT       PACKAGE CNC              ON UNIT   1024 AT TIME STEP      1, STRESS PERIOD     62

 CONCENTRATION WILL BE SAVED ON UNIT 1025 AT END OF TIME STEP    1, STRESS PERIOD   62


  MASS BUDGET FOR ENTIRE MODEL AT END OF TIME STEP    1, STRESS PERIOD  62
  ---------------------------------------------------------------------------------------------------

     CUMULATIVE MASS      M       RATES FOR THIS TIME STEP      M/T          PACKAGE NAME    
     ------------------                 ------------------------                     ----------------

           IN:                                      IN:
           ---                                      ---
     STORAGE-AQUEOUS =         109.9602       STORAGE-AQUEOUS =           1.3702     MST             
               CHD_0 =           0.0000                 CHD_0 =           0.0000     SSM             
                 CNC =         581.7623                   CNC =           0.0000     CNC             

            TOTAL IN =         691.7225              TOTAL IN =           1.3702

          OUT:                                     OUT:
          ----                                     ----
     STORAGE-AQUEOUS =         165.3724       STORAGE-AQUEOUS =       3.5105E-03     MST             
               CHD_0 =         523.7688                 CHD_0 =           1.3622     SSM             
                 CNC =           1.9670                   CNC =       7.5722E-05     CNC             

           TOTAL OUT =         691.1082             TOTAL OUT =           1.3658

            IN - OUT =           0.6143              IN - OUT =       4.3982E-03

 PERCENT DISCREPANCY =           0.09     PERCENT DISCREPANCY =           0.32




         TIME SUMMARY AT END OF TIME STEP    1 IN STRESS PERIOD   62
                    SECONDS     MINUTES      HOURS       DAYS        YEARS
                    -----------------------------------------------------------
   TIME STEP LENGTH  300.00      5.0000     8.33333E-02 3.47222E-03 9.50643E-06
 STRESS PERIOD TIME  300.00      5.0000     8.33333E-02 3.47222E-03 9.50643E-06
         TOTAL TIME  18600.      310.00      5.1667     0.21528     5.89398E-04


end timestep


start timestep kper="63" kstp="1" mode="normal"


 OUTPUT CONTROL FOR STRESS PERIOD 63 IS REPEATED USING SETTINGS FROM A PREVIOUS STRESS PERIOD.

 REUSING CNCS FROM LAST STRESS PERIOD
 UBDSV1 SAVING  STORAGE-AQUEOUS ON UNIT   1024 AT TIME STEP      1, STRESS PERIOD     63
 UBDSV1 SAVING     FLOW-JA-FACE ON UNIT   1024 AT TIME STEP      1, STRESS PERIOD     63
 UBDSV06 SAVING  SOURCE-SINK MIX IN MODEL SERIES2GWT       PACKAGE SERIES2GWT      CONNECTED TO MODEL SERIES2GWT       PACKAGE SSM              ON UNIT   1024 AT TIME STEP      1, STRESS PERIOD     63
 UBDSV06 SAVING              CNC IN MODEL SERIES2GWT       PACKAGE SERIES2GWT      CONNECTED TO MODEL SERIES2GWT       PACKAGE CNC              ON UNIT   1024 AT TIME STEP      1, STRESS PERIOD     63

 CONCENTRATION WILL BE SAVED ON UNIT 1025 AT END OF TIME STEP    1, STRESS PERIOD   63


  MASS BUDGET FOR ENTIRE MODEL AT END OF TIME STEP    1, STRESS PERIOD  63
  ---------------------------------------------------------------------------------------------------

     CUMULATIVE MASS      M       RATES FOR THIS TIME STEP      M/T          PACKAGE NAME    
     ------------------                 ------------------------                     ----------------

           IN:                                      IN:
           ---                                      ---
     STORAGE-AQUEOUS =         115.9189       STORAGE-AQUEOUS =           1.1917     MST             
               CHD_0 =           0.0000                 CHD_0 =           0.0000     SSM             
                 CNC =         581.7623                   CNC =           0.0000     CNC             

            TOTAL IN =         697.6812              TOTAL IN =           1.1917

          OUT:                                     OUT:
          ----                                     ----
     STORAGE-AQUEOUS =         165.3861       STORAGE-AQUEOUS =       2.7436E-03     MST             
               CHD_0 =         529.7168                 CHD_0 =           1.1896     SSM             
                 CNC =           1.9672                   CNC =       4.0614E-05     CNC             

           TOTAL OUT =         697.0701             TOTAL OUT =           1.1924

            IN - OUT =           0.6111              IN - OUT =       6.4277E-04

 PERCENT DISCREPANCY =           0.09     PERCENT DISCREPANCY =          -0.05




         TIME SUMMARY AT END OF TIME STEP    1 IN STRESS PERIOD   63
                    SECONDS     MINUTES      HOURS       DAYS        YEARS
                    -----------------------------------------------------------
   TIME STEP LENGTH  300.00      5.0000     8.33333E-02 3.47222E-03 9.50643E-06
 STRESS PERIOD TIME  300.00      5.0000     8.33333E-02 3.47222E-03 9.50643E-06
         TOTAL TIME  18900.      315.00      5.2500     0.21875     5.98905E-04


end timestep

