                                   MODFLOW 6
                U.S. GEOLOGICAL SURVEY MODULAR HYDROLOGIC MODEL
                            VERSION 6.2.1 02/18/2021

  MODFLOW 6 compiled May  6 2021 00:38:39 with GFORTRAN compiler (ver. 10.2.0)

This software has been approved for release by the U.S. Geological 
Survey (USGS). Although the software has been subjected to rigorous 
review, the USGS reserves the right to update the software as needed 
pursuant to further analysis and review. No warranty, expressed or 
implied, is made by the USGS or the U.S. Government as to the 
functionality of the software and related material nor shall the 
fact of release constitute any such warranty. Furthermore, the 
software is released on condition that neither the USGS nor the U.S. 
Government shall be held liable for any damages resulting from its 
authorized or unauthorized use. Also refer to the USGS Water 
Resources Software User Rights Notice for complete use, copyright, 
and distribution information.


System command used to initiate simulation:
/usr/local/bin/mf6

MODFLOW was compiled using uniform precision.

Real Variables
  KIND: 8
  TINY (smallest non-zero value):    2.225074-308
  HUGE (largest value):    1.797693+308
  PRECISION: 15
  BIT SIZE: 64

Integer Variables
  KIND: 4
  HUGE (largest value): 2147483647
  BIT SIZE: 32

Long Integer Variables
  KIND: 8
  HUGE (largest value): 9223372036854775807
  BIT SIZE: 64

Logical Variables
  KIND: 4
  BIT SIZE: 32


 OPENED mfsim.nam
 FILE TYPE:NAM   UNIT 1001   STATUS:OLD                 
 FORMAT:FORMATTED              ACCESS:SEQUENTIAL          
 ACTION:READ                

 # File generated by Flopy version 3.4.3 on 12/16/2023 at 01:59:35.

 READING SIMULATION OPTIONS
 END OF SIMULATION OPTIONS

 READING SIMULATION TIMING

 OPENED Fremont.tdis
 FILE TYPE:TDIS   UNIT 1002   STATUS:OLD                 
 FORMAT:FORMATTED              ACCESS:SEQUENTIAL          
 ACTION:READ                


 TDIS -- TEMPORAL DISCRETIZATION PACKAGE,
 VERSION 1 : 11/13/2014 - INPUT READ FROM UNIT 1002
 # File generated by Flopy version 3.4.3 on 12/16/2023 at 01:59:35.
 PROCESSING TDIS OPTIONS
    SIMULATION TIME UNIT IS DAYS
    SIMULATION STARTING DATE AND TIME IS 2018-01-01                    
 END OF TDIS OPTIONS
 PROCESSING TDIS DIMENSIONS
   29 STRESS PERIOD(S) IN SIMULATION
 END OF TDIS DIMENSIONS
 PROCESSING TDIS PERIODDATA


 STRESS PERIOD     LENGTH       TIME STEPS     MULTIPLIER FOR DELT
 ----------------------------------------------------------------------------
        1         31.00000          4                    1.250
        2         31.00000          4                    1.250
        3         28.00000          4                    1.250
        4         31.00000          4                    1.250
        5         30.00000          4                    1.250
        6         31.00000          4                    1.250
        7         30.00000          4                    1.250
        8         31.00000          4                    1.250
        9         31.00000          4                    1.250
       10         30.00000          4                    1.250
       11         31.00000          4                    1.250
       12         30.00000          4                    1.250
       13         31.00000          4                    1.250
       14         31.00000          4                    1.250
       15         28.00000          4                    1.250
       16         31.00000          4                    1.250
       17         30.00000          4                    1.250
       18         31.00000          4                    1.250
       19         30.00000          4                    1.250
       20         31.00000          4                    1.250
       21         31.00000          4                    1.250
       22         30.00000          4                    1.250
       23         31.00000          4                    1.250
       24         30.00000          4                    1.250
       25         31.00000          4                    1.250
       26         31.00000          4                    1.250
       27         29.00000          4                    1.250
       28         31.00000          4                    1.250
       29         30.00000          4                    1.250
 END OF TDIS PERIODDATA
 END OF SIMULATION TIMING

 READING SIMULATION MODELS
    GWF6 model FREMONTGWF will be created as model 1
 END OF SIMULATION MODELS

 READING SIMULATION EXCHANGES
 END OF SIMULATION EXCHANGES

 READING SOLUTIONGROUP

 Creating solution: SLN_1           

 OPENED Fremont.ims
 FILE TYPE:IMS   UNIT 1010   STATUS:OLD                 
 FORMAT:FORMATTED              ACCESS:SEQUENTIAL          
 ACTION:READ                

 END OF SIMULATION SOLUTIONGROUP

 IMS -- ITERATIVE MODEL SOLUTION PACKAGE, VERSION 6, 4/28/2017
         INPUT READ FROM UNIT 1010
 # File generated by Flopy version 3.4.3 on 12/16/2023 at 01:59:35.

 PROCESSING IMS OPTIONS
 SIMPLE OPTION:
 DEFAULT SOLVER INPUT VALUES FOR FAST SOLUTIONS
 END OF IMS OPTIONS
 ***UNDER-RELAXATION WILL NOT BE USED***

 ***IMS LINEAR SOLVER WILL BE USED***

 IMSLINEAR -- UNSTRUCTURED LINEAR SOLUTION PACKAGE, VERSION 8, 04/28/2017

 OUTER ITERATION CONVERGENCE CRITERION    (DVCLOSE) =    0.100000E-02
 MAXIMUM NUMBER OF OUTER ITERATIONS        (MXITER) = 25
 SOLVER PRINTOUT INDEX                     (IPRIMS) = 0
 NONLINEAR ITERATION METHOD            (NONLINMETH) = 0
 LINEAR SOLUTION METHOD                   (LINMETH) = 1

       SOLUTION BY THE        CONJUGATE-GRADIENT       METHOD
 ------------------------------------------------------------------
 MAXIMUM OF 25 CALLS OF SOLUTION ROUTINE
 MAXIMUM OF 50 INTERNAL ITERATIONS PER CALL TO SOLUTION ROUTINE
 LINEAR ACCELERATION METHOD            = CG        
 MATRIX PRECONDITIONING TYPE           = INCOMPLETE LU       
 MATRIX SCALING APPROACH               = NO SCALING          
 MATRIX REORDERING APPROACH            = ORIGINAL ORDERING        
 NUMBER OF ORTHOGONALIZATIONS          = 0
 HEAD CHANGE CRITERION FOR CLOSURE     =    0.10000E-02
 RESIDUAL CHANGE CRITERION FOR CLOSURE =    0.10000E+00
 RESIDUAL CONVERGENCE OPTION           = 0
 RESIDUAL CONVERGENCE NORM             = INFINITY NORM   
 RELAXATION FACTOR                     =    0.00000E+00



1
                            STRESS PERIOD NO.    1, LENGTH =   31.00000    
                            -----------------------------------------------

                              NUMBER OF TIME STEPS =     4

                               MULTIPLIER FOR DELT =     1.250

                            INITIAL TIME STEP SIZE =   5.376694    
1
                            STRESS PERIOD NO.    2, LENGTH =   31.00000    
                            -----------------------------------------------

                              NUMBER OF TIME STEPS =     4

                               MULTIPLIER FOR DELT =     1.250

                            INITIAL TIME STEP SIZE =   5.376694    
1
                            STRESS PERIOD NO.    3, LENGTH =   28.00000    
                            -----------------------------------------------

                              NUMBER OF TIME STEPS =     4

                               MULTIPLIER FOR DELT =     1.250

                            INITIAL TIME STEP SIZE =   4.856369    
1
                            STRESS PERIOD NO.    4, LENGTH =   31.00000    
                            -----------------------------------------------

                              NUMBER OF TIME STEPS =     4

                               MULTIPLIER FOR DELT =     1.250

                            INITIAL TIME STEP SIZE =   5.376694    
1
                            STRESS PERIOD NO.    5, LENGTH =   30.00000    
                            -----------------------------------------------

                              NUMBER OF TIME STEPS =     4

                               MULTIPLIER FOR DELT =     1.250

                            INITIAL TIME STEP SIZE =   5.203252    
1
                            STRESS PERIOD NO.    6, LENGTH =   31.00000    
                            -----------------------------------------------

                              NUMBER OF TIME STEPS =     4

                               MULTIPLIER FOR DELT =     1.250

                            INITIAL TIME STEP SIZE =   5.376694    
1
                            STRESS PERIOD NO.    7, LENGTH =   30.00000    
                            -----------------------------------------------

                              NUMBER OF TIME STEPS =     4

                               MULTIPLIER FOR DELT =     1.250

                            INITIAL TIME STEP SIZE =   5.203252    
1
                            STRESS PERIOD NO.    8, LENGTH =   31.00000    
                            -----------------------------------------------

                              NUMBER OF TIME STEPS =     4

                               MULTIPLIER FOR DELT =     1.250

                            INITIAL TIME STEP SIZE =   5.376694    
1
                            STRESS PERIOD NO.    9, LENGTH =   31.00000    
                            -----------------------------------------------

                              NUMBER OF TIME STEPS =     4

                               MULTIPLIER FOR DELT =     1.250

                            INITIAL TIME STEP SIZE =   5.376694    
1
                            STRESS PERIOD NO.   10, LENGTH =   30.00000    
                            -----------------------------------------------

                              NUMBER OF TIME STEPS =     4

                               MULTIPLIER FOR DELT =     1.250

                            INITIAL TIME STEP SIZE =   5.203252    
1
                            STRESS PERIOD NO.   11, LENGTH =   31.00000    
                            -----------------------------------------------

                              NUMBER OF TIME STEPS =     4

                               MULTIPLIER FOR DELT =     1.250

                            INITIAL TIME STEP SIZE =   5.376694    
1
                            STRESS PERIOD NO.   12, LENGTH =   30.00000    
                            -----------------------------------------------

                              NUMBER OF TIME STEPS =     4

                               MULTIPLIER FOR DELT =     1.250

                            INITIAL TIME STEP SIZE =   5.203252    
1
                            STRESS PERIOD NO.   13, LENGTH =   31.00000    
                            -----------------------------------------------

                              NUMBER OF TIME STEPS =     4

                               MULTIPLIER FOR DELT =     1.250

                            INITIAL TIME STEP SIZE =   5.376694    
1
                            STRESS PERIOD NO.   14, LENGTH =   31.00000    
                            -----------------------------------------------

                              NUMBER OF TIME STEPS =     4

                               MULTIPLIER FOR DELT =     1.250

                            INITIAL TIME STEP SIZE =   5.376694    
1
                            STRESS PERIOD NO.   15, LENGTH =   28.00000    
                            -----------------------------------------------

                              NUMBER OF TIME STEPS =     4

                               MULTIPLIER FOR DELT =     1.250

                            INITIAL TIME STEP SIZE =   4.856369    
1
                            STRESS PERIOD NO.   16, LENGTH =   31.00000    
                            -----------------------------------------------

                              NUMBER OF TIME STEPS =     4

                               MULTIPLIER FOR DELT =     1.250

                            INITIAL TIME STEP SIZE =   5.376694    
1
                            STRESS PERIOD NO.   17, LENGTH =   30.00000    
                            -----------------------------------------------

                              NUMBER OF TIME STEPS =     4

                               MULTIPLIER FOR DELT =     1.250

                            INITIAL TIME STEP SIZE =   5.203252    
1
                            STRESS PERIOD NO.   18, LENGTH =   31.00000    
                            -----------------------------------------------

                              NUMBER OF TIME STEPS =     4

                               MULTIPLIER FOR DELT =     1.250

                            INITIAL TIME STEP SIZE =   5.376694    
1
                            STRESS PERIOD NO.   19, LENGTH =   30.00000    
                            -----------------------------------------------

                              NUMBER OF TIME STEPS =     4

                               MULTIPLIER FOR DELT =     1.250

                            INITIAL TIME STEP SIZE =   5.203252    
1
                            STRESS PERIOD NO.   20, LENGTH =   31.00000    
                            -----------------------------------------------

                              NUMBER OF TIME STEPS =     4

                               MULTIPLIER FOR DELT =     1.250

                            INITIAL TIME STEP SIZE =   5.376694    
1
                            STRESS PERIOD NO.   21, LENGTH =   31.00000    
                            -----------------------------------------------

                              NUMBER OF TIME STEPS =     4

                               MULTIPLIER FOR DELT =     1.250

                            INITIAL TIME STEP SIZE =   5.376694    
1
                            STRESS PERIOD NO.   22, LENGTH =   30.00000    
                            -----------------------------------------------

                              NUMBER OF TIME STEPS =     4

                               MULTIPLIER FOR DELT =     1.250

                            INITIAL TIME STEP SIZE =   5.203252    
1
                            STRESS PERIOD NO.   23, LENGTH =   31.00000    
                            -----------------------------------------------

                              NUMBER OF TIME STEPS =     4

                               MULTIPLIER FOR DELT =     1.250

                            INITIAL TIME STEP SIZE =   5.376694    
1
                            STRESS PERIOD NO.   24, LENGTH =   30.00000    
                            -----------------------------------------------

                              NUMBER OF TIME STEPS =     4

                               MULTIPLIER FOR DELT =     1.250

                            INITIAL TIME STEP SIZE =   5.203252    
1
                            STRESS PERIOD NO.   25, LENGTH =   31.00000    
                            -----------------------------------------------

                              NUMBER OF TIME STEPS =     4

                               MULTIPLIER FOR DELT =     1.250

                            INITIAL TIME STEP SIZE =   5.376694    
1
                            STRESS PERIOD NO.   26, LENGTH =   31.00000    
                            -----------------------------------------------

                              NUMBER OF TIME STEPS =     4

                               MULTIPLIER FOR DELT =     1.250

                            INITIAL TIME STEP SIZE =   5.376694    
1
                            STRESS PERIOD NO.   27, LENGTH =   29.00000    
                            -----------------------------------------------

                              NUMBER OF TIME STEPS =     4

                               MULTIPLIER FOR DELT =     1.250

                            INITIAL TIME STEP SIZE =   5.029810    
1
                            STRESS PERIOD NO.   28, LENGTH =   31.00000    
                            -----------------------------------------------

                              NUMBER OF TIME STEPS =     4

                               MULTIPLIER FOR DELT =     1.250

                            INITIAL TIME STEP SIZE =   5.376694    
1
                            STRESS PERIOD NO.   29, LENGTH =   30.00000    
                            -----------------------------------------------

                              NUMBER OF TIME STEPS =     4

                               MULTIPLIER FOR DELT =     1.250

                            INITIAL TIME STEP SIZE =   5.203252    

 MEMORY MANAGER TOTAL STORAGE BY DATA TYPE, IN KILOBYTES
 -------------------------------
                    ALLOCATED   
 DATA TYPE           MEMORY     
 -------------------------------
 Character        5.8330000     
 Logical          4.40000000E-02
 Integer          28.056000     
 Real             66.224000     
 -------------------------------
 Total            100.15700     
 -------------------------------



 Run end date and time (yyyy/mm/dd hh:mm:ss): 2023/12/16  1:59:35
 Elapsed run time:  0.058 Seconds
 Normal termination of simulation.
